(PID.TID 0000.0001) 
(PID.TID 0000.0001) // ======================================================
(PID.TID 0000.0001) //                      MITgcm UV
(PID.TID 0000.0001) //                      =========
(PID.TID 0000.0001) // ======================================================
(PID.TID 0000.0001) // execution environment starting up...
(PID.TID 0000.0001) 
(PID.TID 0000.0001) // MITgcmUV version:  checkpoint63o
(PID.TID 0000.0001) // Build user:        benw
(PID.TID 0000.0001) // Build host:        tide
(PID.TID 0000.0001) // Build date:        Thu Jul  5 03:54:54 EDT 2012
(PID.TID 0000.0001) 
(PID.TID 0000.0001) // =======================================================
(PID.TID 0000.0001) // Execution Environment parameter file "eedata"
(PID.TID 0000.0001) // =======================================================
(PID.TID 0000.0001) ># Example "eedata" file
(PID.TID 0000.0001) ># Lines beginning "#" are comments
(PID.TID 0000.0001) ># nTx - No. threads per process in X
(PID.TID 0000.0001) ># nTy - No. threads per process in Y
(PID.TID 0000.0001) > &EEPARMS
(PID.TID 0000.0001) > nTx=1,nTy=1
(PID.TID 0000.0001) > /
(PID.TID 0000.0001) ># Note: Some systems use & as the
(PID.TID 0000.0001) ># namelist terminator. Other systems
(PID.TID 0000.0001) ># use a / character (as shown here).
(PID.TID 0000.0001) 
(PID.TID 0000.0001) // =======================================================
(PID.TID 0000.0001) // Computational Grid Specification ( see files "SIZE.h" )
(PID.TID 0000.0001) //                                  ( and "eedata"       )
(PID.TID 0000.0001) // =======================================================
(PID.TID 0000.0001)      nPx =    1 ; /* No. processes in X */
(PID.TID 0000.0001)      nPy =    1 ; /* No. processes in Y */
(PID.TID 0000.0001)      nSx =    1 ; /* No. tiles in X per process */
(PID.TID 0000.0001)      nSy =    1 ; /* No. tiles in Y per process */
(PID.TID 0000.0001)      sNx =    1 ; /* Tile size in X */
(PID.TID 0000.0001)      sNy =    1 ; /* Tile size in Y */
(PID.TID 0000.0001)      OLx =    2 ; /* Tile overlap distance in X */
(PID.TID 0000.0001)      OLy =    2 ; /* Tile overlap distance in Y */
(PID.TID 0000.0001)      nTx =    1 ; /* No. threads in X per process */
(PID.TID 0000.0001)      nTy =    1 ; /* No. threads in Y per process */
(PID.TID 0000.0001)       Nr =   35 ; /* No. levels in the vertical   */
(PID.TID 0000.0001)       Nx =    1 ; /* Total domain size in X ( = nPx*nSx*sNx ) */
(PID.TID 0000.0001)       Ny =    1 ; /* Total domain size in Y ( = nPy*nSy*sNy ) */
(PID.TID 0000.0001)   nTiles =    1 ; /* Total no. tiles per process ( = nSx*nSy ) */
(PID.TID 0000.0001)   nProcs =    1 ; /* Total no. processes ( = nPx*nPy ) */
(PID.TID 0000.0001) nThreads =    1 ; /* Total no. threads per process ( = nTx*nTy ) */
(PID.TID 0000.0001) usingMPI =    F ; /* Flag used to control whether MPI is in use */
(PID.TID 0000.0001)                   /*  note: To execute a program with MPI calls */
(PID.TID 0000.0001)                   /*  it must be launched appropriately e.g     */
(PID.TID 0000.0001)                   /*  "mpirun -np 64 ......"                    */
(PID.TID 0000.0001) useCoupler=    F ;/* Flag used to control communications with   */
(PID.TID 0000.0001)                   /*  other model components, through a coupler */
(PID.TID 0000.0001) debugMode =    F ; /* print debug msg. (sequence of S/R calls)  */
(PID.TID 0000.0001) printMapIncludesZeros=    F ; /* print zeros in Std.Output maps */
(PID.TID 0000.0001) maxLengthPrt1D=   65 /* maxLength of 1D array printed to StdOut */
(PID.TID 0000.0001) 
(PID.TID 0000.0001) // ======================================================
(PID.TID 0000.0001) // Mapping of tiles to threads
(PID.TID 0000.0001) // ======================================================
(PID.TID 0000.0001) // -o- Thread   1, tiles (   1:   1,   1:   1)
(PID.TID 0000.0001) 
(PID.TID 0000.0001) // ======================================================
(PID.TID 0000.0001) // Tile <-> Tile connectvity table
(PID.TID 0000.0001) // ======================================================
(PID.TID 0000.0001) // Tile number: 000001 (process no. = 000001)
(PID.TID 0000.0001) //        WEST: Tile = 000001, Process = 000001, Comm = put
(PID.TID 0000.0001) //                bi = 000001, bj = 000001
(PID.TID 0000.0001) //        EAST: Tile = 000001, Process = 000001, Comm = put
(PID.TID 0000.0001) //                bi = 000001, bj = 000001
(PID.TID 0000.0001) //       SOUTH: Tile = 000001, Process = 000001, Comm = put
(PID.TID 0000.0001) //                bi = 000001, bj = 000001
(PID.TID 0000.0001) //       NORTH: Tile = 000001, Process = 000001, Comm = put
(PID.TID 0000.0001) //                bi = 000001, bj = 000001
(PID.TID 0000.0001) 
(PID.TID 0000.0001)  INI_PARMS: opening model parameter file "data"
(PID.TID 0000.0001)  OPEN_COPY_DATA_FILE: opening file data
(PID.TID 0000.0001) // =======================================================
(PID.TID 0000.0001) // Parameter file "data"
(PID.TID 0000.0001) // =======================================================
(PID.TID 0000.0001) >#
(PID.TID 0000.0001) ># ******************************
(PID.TID 0000.0001) ># Model parameters
(PID.TID 0000.0001) ># Continuous equation parameters
(PID.TID 0000.0001) ># ******************************
(PID.TID 0000.0001) >&PARM01
(PID.TID 0000.0001) >tRef= 26.5, 26.1, 26., 25.5, 25.4, 24.9, 24.5, 24.0, 23.7,
(PID.TID 0000.0001) >      23.3, 23.1, 22.8, 22.5, 22.1, 21.6, 20.6, 19.5, 18.4,
(PID.TID 0000.0001) >      17.3, 16.6, 15.5, 14.6, 13.8, 13.1, 11.6, 10.1, 7.7,
(PID.TID 0000.0001) >      5.3, 4.1, 3.7, 3.7, 3.4, 3.0, 2.8, 2.6,
(PID.TID 0000.0001) >sRef= 35*35.00,
(PID.TID 0000.0001) >no_slip_sides=.false.,
(PID.TID 0000.0001) >no_slip_bottom=.TRUE.,
(PID.TID 0000.0001) >viscAz=0.e0,
(PID.TID 0000.0001) >viscAh=0.e0,
(PID.TID 0000.0001) >diffKhT=1.E2,
(PID.TID 0000.0001) >diffKzT=1.E-4,
(PID.TID 0000.0001) >diffKhS=0.D0,
(PID.TID 0000.0001) >diffKzS=0.D0,
(PID.TID 0000.0001) >beta=1.E-11,
(PID.TID 0000.0001) >tAlpha=2.E-4,
(PID.TID 0000.0001) >sBeta =7.4E-4,
(PID.TID 0000.0001) >gravity=9.81,
(PID.TID 0000.0001) >gBaro=9.81,
(PID.TID 0000.0001) >rigidLid=.TRUE.,
(PID.TID 0000.0001) >implicitFreeSurface=.false.,
(PID.TID 0000.0001) >eosType='JMD95Z',
(PID.TID 0000.0001) >saltStepping=.FALSE.,
(PID.TID 0000.0001) >tempStepping=.TRUE.,
(PID.TID 0000.0001) >tempAdvection=.TRUE.,
(PID.TID 0000.0001) >momStepping=.FALSE.,
(PID.TID 0000.0001) >implicitDiffusion=.true.,
(PID.TID 0000.0001) >implicitViscosity=.true.,
(PID.TID 0000.0001) >allowFreezing=.false.,
(PID.TID 0000.0001) >useSingleCpuIO=.TRUE.,
(PID.TID 0000.0001) >useCDscheme=.FALSE.,
(PID.TID 0000.0001) >tempAdvScheme = 3,
(PID.TID 0000.0001) >saltAdvScheme = 3,
(PID.TID 0000.0001) >/
(PID.TID 0000.0001) >
(PID.TID 0000.0001) ># **************************
(PID.TID 0000.0001) ># Elliptic solver parameters
(PID.TID 0000.0001) ># **************************
(PID.TID 0000.0001) >&PARM02
(PID.TID 0000.0001) >cg2dMaxIters=300,
(PID.TID 0000.0001) >cg2dTargetResidual=1.E-7,
(PID.TID 0000.0001) >/
(PID.TID 0000.0001) >
(PID.TID 0000.0001) ># ************************
(PID.TID 0000.0001) ># Time stepping parameters
(PID.TID 0000.0001) ># ************************
(PID.TID 0000.0001) >&PARM03
(PID.TID 0000.0001) > nIter0=000000,
(PID.TID 0000.0001) ># nTimeSteps=86400,
(PID.TID 0000.0001) > nTimeSteps=4,
(PID.TID 0000.0001) > deltaTmom= 10800.,
(PID.TID 0000.0001) > deltaTtracer= 10800.,
(PID.TID 0000.0001) > deltaTClock = 10800.,
(PID.TID 0000.0001) >#benw set to 0. to switch off cAdj (?)
(PID.TID 0000.0001) > cAdjFreq=0.,
(PID.TID 0000.0001) > abEps=0.1,
(PID.TID 0000.0001) > pChkptFreq  = 31104000.0,
(PID.TID 0000.0001) > chkptFreq   = 31104000.0,
(PID.TID 0000.0001) > monitorFreq = 1.,
(PID.TID 0000.0001) > dumpFreq    = 31104000.0,
(PID.TID 0000.0001) > taveFreq    = 86400.,
(PID.TID 0000.0001) > tauThetaClimRelax=259200.,
(PID.TID 0000.0001) > tauSaltClimRelax=0.,
(PID.TID 0000.0001) > periodicExternalForcing=.TRUE.,
(PID.TID 0000.0001) > externForcingPeriod=2592000.,
(PID.TID 0000.0001) > externForcingCycle=31104000.,
(PID.TID 0000.0001) >/
(PID.TID 0000.0001) >
(PID.TID 0000.0001) ># *******************
(PID.TID 0000.0001) ># Gridding parameters
(PID.TID 0000.0001) ># *******************
(PID.TID 0000.0001) >&PARM04
(PID.TID 0000.0001) >usingCartesianGrid=.FALSE.,
(PID.TID 0000.0001) >usingSphericalPolarGrid=.TRUE.,
(PID.TID 0000.0001) >delX=1*1.E0,
(PID.TID 0000.0001) >delY=1*1.E0,
(PID.TID 0000.0001) >delZ=14*10, 5*15, 4*20, 2*50, 100, 2*150, 200, 300, 3*400, 2*500,
(PID.TID 0000.0001) >xgOrigin=335,
(PID.TID 0000.0001) >ygOrigin=-18.,
(PID.TID 0000.0001) >/
(PID.TID 0000.0001) >
(PID.TID 0000.0001) ># **********
(PID.TID 0000.0001) ># Data Files
(PID.TID 0000.0001) ># **********
(PID.TID 0000.0001) >&PARM05
(PID.TID 0000.0001) >bathyFile=       '../input/input/bathyneg.bin',
(PID.TID 0000.0001) >hydrogThetaFile= '../input/input/loc1_temp_janprof.bin',
(PID.TID 0000.0001) >hydrogSaltFile=  '../input/input/salt_uniform.bin',
(PID.TID 0000.0001) >zonalWindFile=   '../input/input/wind_u_mon.bin',
(PID.TID 0000.0001) >meridWindFile=   '../input/input/wind_v_mon.bin',
(PID.TID 0000.0001) >thetaClimFile=   '../input/input/loc1_temp_monsurf.bin',
(PID.TID 0000.0001) >saltClimFile=    '',
(PID.TID 0000.0001) >surfQFile=       '',
(PID.TID 0000.0001) >EmPmRFile=       '',
(PID.TID 0000.0001) >/
(PID.TID 0000.0001) 
(PID.TID 0000.0001)  INI_PARMS ; starts to read PARM01
(PID.TID 0000.0001)  INI_PARMS ; read PARM01 : OK
(PID.TID 0000.0001)  INI_PARMS ; starts to read PARM02
(PID.TID 0000.0001)  INI_PARMS ; read PARM02 : OK
(PID.TID 0000.0001)  INI_PARMS ; starts to read PARM03
(PID.TID 0000.0001)  INI_PARMS ; read PARM03 : OK
(PID.TID 0000.0001)  INI_PARMS ; starts to read PARM04
(PID.TID 0000.0001)  INI_PARMS ; read PARM04 : OK
(PID.TID 0000.0001)  INI_PARMS ; starts to read PARM05
(PID.TID 0000.0001)  INI_PARMS ; read PARM05 : OK
(PID.TID 0000.0001)  INI_PARMS: finished reading file "data"
(PID.TID 0000.0001)  PACKAGES_BOOT: opening data.pkg
(PID.TID 0000.0001)  OPEN_COPY_DATA_FILE: opening file data.pkg
(PID.TID 0000.0001) // =======================================================
(PID.TID 0000.0001) // Parameter file "data.pkg"
(PID.TID 0000.0001) // =======================================================
(PID.TID 0000.0001) ># Packages
(PID.TID 0000.0001) > &PACKAGES
(PID.TID 0000.0001) > usePTRACERS=.TRUE.
(PID.TID 0000.0001) > useGCHEM=.TRUE.,
(PID.TID 0000.0001) ># useDiagnostics=.TRUE.,
(PID.TID 0000.0001) > useKPP=.TRUE.,
(PID.TID 0000.0001) > useMNC=.TRUE.,
(PID.TID 0000.0001) > /
(PID.TID 0000.0001) 
(PID.TID 0000.0001)  PACKAGES_BOOT: finished reading data.pkg
(PID.TID 0000.0001)  MNC_READPARMS: opening file 'data.mnc'
(PID.TID 0000.0001)  OPEN_COPY_DATA_FILE: opening file data.mnc
(PID.TID 0000.0001) // =======================================================
(PID.TID 0000.0001) // Parameter file "data.mnc"
(PID.TID 0000.0001) // =======================================================
(PID.TID 0000.0001) ># Example "data.mnc" file
(PID.TID 0000.0001) ># Lines beginning "#" are comments
(PID.TID 0000.0001) > &MNC_01
(PID.TID 0000.0001) ># mnc_echo_gvtypes=.FALSE.,
(PID.TID 0000.0001) ># mnc_use_indir=.FALSE.,
(PID.TID 0000.0001) > mnc_use_outdir=.TRUE.,
(PID.TID 0000.0001) > mnc_outdir_str='dar1d_',
(PID.TID 0000.0001) > mnc_outdir_date=.TRUE.,
(PID.TID 0000.0001) > monitor_mnc=.FALSE.,
(PID.TID 0000.0001) > snapshot_mnc=.TRUE.,
(PID.TID 0000.0001) > timeave_mnc=.TRUE.,
(PID.TID 0000.0001) > pickup_read_mnc=.FALSE.,
(PID.TID 0000.0001) > pickup_write_mnc=.FALSE.,
(PID.TID 0000.0001) > /
(PID.TID 0000.0001) ># Note: Some systems use & as the
(PID.TID 0000.0001) ># namelist terminator. Other systems
(PID.TID 0000.0001) ># use a / character.
(PID.TID 0000.0001) 
(PID.TID 0000.0001)  MNC_READPARMS: finished reading data.mnc
(PID.TID 0000.0001)  KPP_INIT: opening data.kpp
(PID.TID 0000.0001)  OPEN_COPY_DATA_FILE: opening file data.kpp
(PID.TID 0000.0001) // =======================================================
(PID.TID 0000.0001) // Parameter file "data.kpp"
(PID.TID 0000.0001) // =======================================================
(PID.TID 0000.0001) ># KPP parameters
(PID.TID 0000.0001) > &KPP_PARM01
(PID.TID 0000.0001) > KPPmixingMaps   = .FALSE.,
(PID.TID 0000.0001) > KPPwriteState   = .TRUE.,
(PID.TID 0000.0001) > kpp_dumpFreq    = 2592000.
(PID.TID 0000.0001) > kpp_tavefreq    = 2592000.
(PID.TID 0000.0001) > Ricr            = 0.3559
(PID.TID 0000.0001) > Riinfty         = 0.6998
(PID.TID 0000.0001) > /
(PID.TID 0000.0001) 
(PID.TID 0000.0001)  KPP_INIT: finished reading data.kpp
(PID.TID 0000.0001)  PTRACERS_READPARMS: opening data.ptracers
(PID.TID 0000.0001)  OPEN_COPY_DATA_FILE: opening file data.ptracers
(PID.TID 0000.0001) // =======================================================
(PID.TID 0000.0001) // Parameter file "data.ptracers"
(PID.TID 0000.0001) // =======================================================
(PID.TID 0000.0001) > &PTRACERS_PARM01
(PID.TID 0000.0001) > PTRACERS_numInUse=74,
(PID.TID 0000.0001) > PTRACERS_Iter0= 0,
(PID.TID 0000.0001) ># tracer 1 - Dissolved Inorganic Carbon
(PID.TID 0000.0001) > PTRACERS_names(1)='DIC',
(PID.TID 0000.0001) > PTRACERS_units(1)='mmol C/m^3',
(PID.TID 0000.0001) > PTRACERS_advScheme(1)=33,
(PID.TID 0000.0001) > PTRACERS_diffKh(1)=0.E3,
(PID.TID 0000.0001) > PTRACERS_diffKr(1)=1.E-5,
(PID.TID 0000.0001) > PTRACERS_useGMRedi(1)=.FALSE.,
(PID.TID 0000.0001) > PTRACERS_useKPP(1)=.TRUE.,
(PID.TID 0000.0001) > PTRACERS_initialFile(1)='../input/input/loc1_DIC_annprof.bin',
(PID.TID 0000.0001) ># tracer 2 - Nitrate
(PID.TID 0000.0001) > PTRACERS_names(2)='NO3',
(PID.TID 0000.0001) > PTRACERS_units(2)='mmol N/m^3',
(PID.TID 0000.0001) > PTRACERS_advScheme(2)=33,
(PID.TID 0000.0001) > PTRACERS_diffKh(2)=0.E3,
(PID.TID 0000.0001) > PTRACERS_diffKr(2)=1.E-5,
(PID.TID 0000.0001) > PTRACERS_useGMRedi(2)=.FALSE.,
(PID.TID 0000.0001) > PTRACERS_useKPP(2)=.TRUE.,
(PID.TID 0000.0001) > PTRACERS_initialFile(2)='../input/input/loc1_nitr_janprof.bin',
(PID.TID 0000.0001) ># tracer 3 - Nitrite
(PID.TID 0000.0001) > PTRACERS_names(3)='NO2',
(PID.TID 0000.0001) > PTRACERS_units(3)='mmol N/m^3',
(PID.TID 0000.0001) > PTRACERS_advScheme(3)=33,
(PID.TID 0000.0001) > PTRACERS_diffKh(3)=0.E3,
(PID.TID 0000.0001) > PTRACERS_diffKr(3)=1.E-5,
(PID.TID 0000.0001) > PTRACERS_useGMRedi(3)=.FALSE.,
(PID.TID 0000.0001) > PTRACERS_useKPP(3)=.TRUE.,
(PID.TID 0000.0001) > PTRACERS_initialFile(3)='../input/input/loc1_NO2_run83_janprof.bin',
(PID.TID 0000.0001) ># tracer 4 - Ammonium
(PID.TID 0000.0001) > PTRACERS_names(4)='NH4',
(PID.TID 0000.0001) > PTRACERS_units(4)='mmol N/m^3',
(PID.TID 0000.0001) > PTRACERS_advScheme(4)=33,
(PID.TID 0000.0001) > PTRACERS_diffKh(4)=0.E3,
(PID.TID 0000.0001) > PTRACERS_diffKr(4)=1.E-5,
(PID.TID 0000.0001) > PTRACERS_useGMRedi(4)=.FALSE.,
(PID.TID 0000.0001) > PTRACERS_useKPP(4)=.TRUE.,
(PID.TID 0000.0001) > PTRACERS_initialFile(4)='../input/input/loc1_NH4_run83_janprof.bin',
(PID.TID 0000.0001) ># tracer 5 - Dissolved Iron
(PID.TID 0000.0001) > PTRACERS_names(5)='FeT',
(PID.TID 0000.0001) > PTRACERS_units(5)='mmol Fe/m^3',
(PID.TID 0000.0001) > PTRACERS_advScheme(5)=33,
(PID.TID 0000.0001) > PTRACERS_diffKh(5)=0.E3,
(PID.TID 0000.0001) > PTRACERS_diffKr(5)=1.E-5,
(PID.TID 0000.0001) > PTRACERS_useGMRedi(5)=.FALSE.,
(PID.TID 0000.0001) > PTRACERS_useKPP(5)=.TRUE.,
(PID.TID 0000.0001) > PTRACERS_initialFile(5)='../input/input/loc1_FeT_run83_janprof.bin',
(PID.TID 0000.0001) ># tracer 6 - Carbon Biomass: Plankton(1)
(PID.TID 0000.0001) > PTRACERS_names(6)='BIO_1_001',
(PID.TID 0000.0001) > PTRACERS_units(6)='mmol C/m^3',
(PID.TID 0000.0001) > PTRACERS_advScheme(6)=33,
(PID.TID 0000.0001) > PTRACERS_diffKh(6)=0.E3,
(PID.TID 0000.0001) > PTRACERS_diffKr(6)=1.E-5,
(PID.TID 0000.0001) > PTRACERS_useGMRedi(6)=.FALSE.,
(PID.TID 0000.0001) > PTRACERS_useKPP(6)=.TRUE.,
(PID.TID 0000.0001) > PTRACERS_initialFile(6)='../input/input/loc1_C_biomass_janprof.bin',
(PID.TID 0000.0001) ># tracer 7 - Carbon Biomass: Plankton(2)
(PID.TID 0000.0001) > PTRACERS_names(7)='BIO_1_002',
(PID.TID 0000.0001) > PTRACERS_units(7)='mmol C/m^3',
(PID.TID 0000.0001) > PTRACERS_advScheme(7)=33,
(PID.TID 0000.0001) > PTRACERS_diffKh(7)=0.E3,
(PID.TID 0000.0001) > PTRACERS_diffKr(7)=1.E-5,
(PID.TID 0000.0001) > PTRACERS_useGMRedi(7)=.FALSE.,
(PID.TID 0000.0001) > PTRACERS_useKPP(7)=.TRUE.,
(PID.TID 0000.0001) > PTRACERS_initialFile(7)='../input/input/loc1_C_biomass_janprof.bin',
(PID.TID 0000.0001) ># tracer 8 - Carbon Biomass: Plankton(3)
(PID.TID 0000.0001) > PTRACERS_names(8)='BIO_1_003',
(PID.TID 0000.0001) > PTRACERS_units(8)='mmol C/m^3',
(PID.TID 0000.0001) > PTRACERS_advScheme(8)=33,
(PID.TID 0000.0001) > PTRACERS_diffKh(8)=0.E3,
(PID.TID 0000.0001) > PTRACERS_diffKr(8)=1.E-5,
(PID.TID 0000.0001) > PTRACERS_useGMRedi(8)=.FALSE.,
(PID.TID 0000.0001) > PTRACERS_useKPP(8)=.TRUE.,
(PID.TID 0000.0001) > PTRACERS_initialFile(8)='../input/input/loc1_C_biomass_janprof.bin',
(PID.TID 0000.0001) ># tracer 9 - Carbon Biomass: Plankton(4)
(PID.TID 0000.0001) > PTRACERS_names(9)='BIO_1_004',
(PID.TID 0000.0001) > PTRACERS_units(9)='mmol C/m^3',
(PID.TID 0000.0001) > PTRACERS_advScheme(9)=33,
(PID.TID 0000.0001) > PTRACERS_diffKh(9)=0.E3,
(PID.TID 0000.0001) > PTRACERS_diffKr(9)=1.E-5,
(PID.TID 0000.0001) > PTRACERS_useGMRedi(9)=.FALSE.,
(PID.TID 0000.0001) > PTRACERS_useKPP(9)=.TRUE.,
(PID.TID 0000.0001) > PTRACERS_initialFile(9)='../input/input/loc1_C_biomass_janprof.bin',
(PID.TID 0000.0001) ># tracer 10 - Carbon Biomass: Plankton(5)
(PID.TID 0000.0001) > PTRACERS_names(10)='BIO_1_005',
(PID.TID 0000.0001) > PTRACERS_units(10)='mmol C/m^3',
(PID.TID 0000.0001) > PTRACERS_advScheme(10)=33,
(PID.TID 0000.0001) > PTRACERS_diffKh(10)=0.E3,
(PID.TID 0000.0001) > PTRACERS_diffKr(10)=1.E-5,
(PID.TID 0000.0001) > PTRACERS_useGMRedi(10)=.FALSE.,
(PID.TID 0000.0001) > PTRACERS_useKPP(10)=.TRUE.,
(PID.TID 0000.0001) > PTRACERS_initialFile(10)='../input/input/loc1_C_biomass_janprof.bin',
(PID.TID 0000.0001) ># tracer 11 - Carbon Biomass: Plankton(6)
(PID.TID 0000.0001) > PTRACERS_names(11)='BIO_1_006',
(PID.TID 0000.0001) > PTRACERS_units(11)='mmol C/m^3',
(PID.TID 0000.0001) > PTRACERS_advScheme(11)=33,
(PID.TID 0000.0001) > PTRACERS_diffKh(11)=0.E3,
(PID.TID 0000.0001) > PTRACERS_diffKr(11)=1.E-5,
(PID.TID 0000.0001) > PTRACERS_useGMRedi(11)=.FALSE.,
(PID.TID 0000.0001) > PTRACERS_useKPP(11)=.TRUE.,
(PID.TID 0000.0001) > PTRACERS_initialFile(11)='../input/input/loc1_C_biomass_janprof.bin',
(PID.TID 0000.0001) ># tracer 12 - Carbon Biomass: Plankton(7)
(PID.TID 0000.0001) > PTRACERS_names(12)='BIO_1_007',
(PID.TID 0000.0001) > PTRACERS_units(12)='mmol C/m^3',
(PID.TID 0000.0001) > PTRACERS_advScheme(12)=33,
(PID.TID 0000.0001) > PTRACERS_diffKh(12)=0.E3,
(PID.TID 0000.0001) > PTRACERS_diffKr(12)=1.E-5,
(PID.TID 0000.0001) > PTRACERS_useGMRedi(12)=.FALSE.,
(PID.TID 0000.0001) > PTRACERS_useKPP(12)=.TRUE.,
(PID.TID 0000.0001) > PTRACERS_initialFile(12)='../input/input/loc1_C_biomass_janprof.bin',
(PID.TID 0000.0001) ># tracer 13 - Carbon Biomass: Plankton(8)
(PID.TID 0000.0001) > PTRACERS_names(13)='BIO_1_008',
(PID.TID 0000.0001) > PTRACERS_units(13)='mmol C/m^3',
(PID.TID 0000.0001) > PTRACERS_advScheme(13)=33,
(PID.TID 0000.0001) > PTRACERS_diffKh(13)=0.E3,
(PID.TID 0000.0001) > PTRACERS_diffKr(13)=1.E-5,
(PID.TID 0000.0001) > PTRACERS_useGMRedi(13)=.FALSE.,
(PID.TID 0000.0001) > PTRACERS_useKPP(13)=.TRUE.,
(PID.TID 0000.0001) > PTRACERS_initialFile(13)='../input/input/loc1_C_biomass_janprof.bin',
(PID.TID 0000.0001) ># tracer 14 - Carbon Biomass: Plankton(9)
(PID.TID 0000.0001) > PTRACERS_names(14)='BIO_1_009',
(PID.TID 0000.0001) > PTRACERS_units(14)='mmol C/m^3',
(PID.TID 0000.0001) > PTRACERS_advScheme(14)=33,
(PID.TID 0000.0001) > PTRACERS_diffKh(14)=0.E3,
(PID.TID 0000.0001) > PTRACERS_diffKr(14)=1.E-5,
(PID.TID 0000.0001) > PTRACERS_useGMRedi(14)=.FALSE.,
(PID.TID 0000.0001) > PTRACERS_useKPP(14)=.TRUE.,
(PID.TID 0000.0001) > PTRACERS_initialFile(14)='../input/input/loc1_C_biomass_janprof.bin',
(PID.TID 0000.0001) ># tracer 15 - Carbon Biomass: Plankton(10)
(PID.TID 0000.0001) > PTRACERS_names(15)='BIO_1_010',
(PID.TID 0000.0001) > PTRACERS_units(15)='mmol C/m^3',
(PID.TID 0000.0001) > PTRACERS_advScheme(15)=33,
(PID.TID 0000.0001) > PTRACERS_diffKh(15)=0.E3,
(PID.TID 0000.0001) > PTRACERS_diffKr(15)=1.E-5,
(PID.TID 0000.0001) > PTRACERS_useGMRedi(15)=.FALSE.,
(PID.TID 0000.0001) > PTRACERS_useKPP(15)=.TRUE.,
(PID.TID 0000.0001) > PTRACERS_initialFile(15)='../input/input/loc1_C_biomass_janprof.bin',
(PID.TID 0000.0001) ># tracer 16 - Carbon Biomass: Plankton(11)
(PID.TID 0000.0001) > PTRACERS_names(16)='BIO_1_011',
(PID.TID 0000.0001) > PTRACERS_units(16)='mmol C/m^3',
(PID.TID 0000.0001) > PTRACERS_advScheme(16)=33,
(PID.TID 0000.0001) > PTRACERS_diffKh(16)=0.E3,
(PID.TID 0000.0001) > PTRACERS_diffKr(16)=1.E-5,
(PID.TID 0000.0001) > PTRACERS_useGMRedi(16)=.FALSE.,
(PID.TID 0000.0001) > PTRACERS_useKPP(16)=.TRUE.,
(PID.TID 0000.0001) > PTRACERS_initialFile(16)='../input/input/loc1_C_biomass_janprof.bin',
(PID.TID 0000.0001) ># tracer 17 - Carbon Biomass: Plankton(12)
(PID.TID 0000.0001) > PTRACERS_names(17)='BIO_1_012',
(PID.TID 0000.0001) > PTRACERS_units(17)='mmol C/m^3',
(PID.TID 0000.0001) > PTRACERS_advScheme(17)=33,
(PID.TID 0000.0001) > PTRACERS_diffKh(17)=0.E3,
(PID.TID 0000.0001) > PTRACERS_diffKr(17)=1.E-5,
(PID.TID 0000.0001) > PTRACERS_useGMRedi(17)=.FALSE.,
(PID.TID 0000.0001) > PTRACERS_useKPP(17)=.TRUE.,
(PID.TID 0000.0001) > PTRACERS_initialFile(17)='../input/input/loc1_C_biomass_janprof.bin',
(PID.TID 0000.0001) ># tracer 18 - Carbon Biomass: Plankton(13)
(PID.TID 0000.0001) > PTRACERS_names(18)='BIO_1_013',
(PID.TID 0000.0001) > PTRACERS_units(18)='mmol C/m^3',
(PID.TID 0000.0001) > PTRACERS_advScheme(18)=33,
(PID.TID 0000.0001) > PTRACERS_diffKh(18)=0.E3,
(PID.TID 0000.0001) > PTRACERS_diffKr(18)=1.E-5,
(PID.TID 0000.0001) > PTRACERS_useGMRedi(18)=.FALSE.,
(PID.TID 0000.0001) > PTRACERS_useKPP(18)=.TRUE.,
(PID.TID 0000.0001) > PTRACERS_initialFile(18)='../input/input/loc1_C_biomass_janprof.bin',
(PID.TID 0000.0001) ># tracer 19 - Carbon Biomass: Plankton(14)
(PID.TID 0000.0001) > PTRACERS_names(19)='BIO_1_014',
(PID.TID 0000.0001) > PTRACERS_units(19)='mmol C/m^3',
(PID.TID 0000.0001) > PTRACERS_advScheme(19)=33,
(PID.TID 0000.0001) > PTRACERS_diffKh(19)=0.E3,
(PID.TID 0000.0001) > PTRACERS_diffKr(19)=1.E-5,
(PID.TID 0000.0001) > PTRACERS_useGMRedi(19)=.FALSE.,
(PID.TID 0000.0001) > PTRACERS_useKPP(19)=.TRUE.,
(PID.TID 0000.0001) > PTRACERS_initialFile(19)='../input/input/loc1_C_biomass_janprof.bin',
(PID.TID 0000.0001) ># tracer 20 - Carbon Biomass: Plankton(15)
(PID.TID 0000.0001) > PTRACERS_names(20)='BIO_1_015',
(PID.TID 0000.0001) > PTRACERS_units(20)='mmol C/m^3',
(PID.TID 0000.0001) > PTRACERS_advScheme(20)=33,
(PID.TID 0000.0001) > PTRACERS_diffKh(20)=0.E3,
(PID.TID 0000.0001) > PTRACERS_diffKr(20)=1.E-5,
(PID.TID 0000.0001) > PTRACERS_useGMRedi(20)=.FALSE.,
(PID.TID 0000.0001) > PTRACERS_useKPP(20)=.TRUE.,
(PID.TID 0000.0001) > PTRACERS_initialFile(20)='../input/input/loc1_C_biomass_janprof.bin',
(PID.TID 0000.0001) ># tracer 21 - Carbon Biomass: Plankton(16)
(PID.TID 0000.0001) > PTRACERS_names(21)='BIO_1_016',
(PID.TID 0000.0001) > PTRACERS_units(21)='mmol C/m^3',
(PID.TID 0000.0001) > PTRACERS_advScheme(21)=33,
(PID.TID 0000.0001) > PTRACERS_diffKh(21)=0.E3,
(PID.TID 0000.0001) > PTRACERS_diffKr(21)=1.E-5,
(PID.TID 0000.0001) > PTRACERS_useGMRedi(21)=.FALSE.,
(PID.TID 0000.0001) > PTRACERS_useKPP(21)=.TRUE.,
(PID.TID 0000.0001) > PTRACERS_initialFile(21)='../input/input/loc1_C_biomass_janprof.bin',
(PID.TID 0000.0001) ># tracer 22 - Nitrogen Biomass: Plankton(1)
(PID.TID 0000.0001) > PTRACERS_names(22)='BIO_2_001',
(PID.TID 0000.0001) > PTRACERS_units(22)='mmol N/m^3',
(PID.TID 0000.0001) > PTRACERS_advScheme(22)=33,
(PID.TID 0000.0001) > PTRACERS_diffKh(22)=0.E3,
(PID.TID 0000.0001) > PTRACERS_diffKr(22)=1.E-5,
(PID.TID 0000.0001) > PTRACERS_useGMRedi(22)=.FALSE.,
(PID.TID 0000.0001) > PTRACERS_useKPP(22)=.TRUE.,
(PID.TID 0000.0001) > PTRACERS_initialFile(22)='../input/input/loc1_N_biomass_janprof.bin',
(PID.TID 0000.0001) ># tracer 23 - Nitrogen Biomass: Plankton(2)
(PID.TID 0000.0001) > PTRACERS_names(23)='BIO_2_002',
(PID.TID 0000.0001) > PTRACERS_units(23)='mmol N/m^3',
(PID.TID 0000.0001) > PTRACERS_advScheme(23)=33,
(PID.TID 0000.0001) > PTRACERS_diffKh(23)=0.E3,
(PID.TID 0000.0001) > PTRACERS_diffKr(23)=1.E-5,
(PID.TID 0000.0001) > PTRACERS_useGMRedi(23)=.FALSE.,
(PID.TID 0000.0001) > PTRACERS_useKPP(23)=.TRUE.,
(PID.TID 0000.0001) > PTRACERS_initialFile(23)='../input/input/loc1_N_biomass_janprof.bin',
(PID.TID 0000.0001) ># tracer 24 - Nitrogen Biomass: Plankton(3)
(PID.TID 0000.0001) > PTRACERS_names(24)='BIO_2_003',
(PID.TID 0000.0001) > PTRACERS_units(24)='mmol N/m^3',
(PID.TID 0000.0001) > PTRACERS_advScheme(24)=33,
(PID.TID 0000.0001) > PTRACERS_diffKh(24)=0.E3,
(PID.TID 0000.0001) > PTRACERS_diffKr(24)=1.E-5,
(PID.TID 0000.0001) > PTRACERS_useGMRedi(24)=.FALSE.,
(PID.TID 0000.0001) > PTRACERS_useKPP(24)=.TRUE.,
(PID.TID 0000.0001) > PTRACERS_initialFile(24)='../input/input/loc1_N_biomass_janprof.bin',
(PID.TID 0000.0001) ># tracer 25 - Nitrogen Biomass: Plankton(4)
(PID.TID 0000.0001) > PTRACERS_names(25)='BIO_2_004',
(PID.TID 0000.0001) > PTRACERS_units(25)='mmol N/m^3',
(PID.TID 0000.0001) > PTRACERS_advScheme(25)=33,
(PID.TID 0000.0001) > PTRACERS_diffKh(25)=0.E3,
(PID.TID 0000.0001) > PTRACERS_diffKr(25)=1.E-5,
(PID.TID 0000.0001) > PTRACERS_useGMRedi(25)=.FALSE.,
(PID.TID 0000.0001) > PTRACERS_useKPP(25)=.TRUE.,
(PID.TID 0000.0001) > PTRACERS_initialFile(25)='../input/input/loc1_N_biomass_janprof.bin',
(PID.TID 0000.0001) ># tracer 26 - Nitrogen Biomass: Plankton(5)
(PID.TID 0000.0001) > PTRACERS_names(26)='BIO_2_005',
(PID.TID 0000.0001) > PTRACERS_units(26)='mmol N/m^3',
(PID.TID 0000.0001) > PTRACERS_advScheme(26)=33,
(PID.TID 0000.0001) > PTRACERS_diffKh(26)=0.E3,
(PID.TID 0000.0001) > PTRACERS_diffKr(26)=1.E-5,
(PID.TID 0000.0001) > PTRACERS_useGMRedi(26)=.FALSE.,
(PID.TID 0000.0001) > PTRACERS_useKPP(26)=.TRUE.,
(PID.TID 0000.0001) > PTRACERS_initialFile(26)='../input/input/loc1_N_biomass_janprof.bin',
(PID.TID 0000.0001) ># tracer 27 - Nitrogen Biomass: Plankton(6)
(PID.TID 0000.0001) > PTRACERS_names(27)='BIO_2_006',
(PID.TID 0000.0001) > PTRACERS_units(27)='mmol N/m^3',
(PID.TID 0000.0001) > PTRACERS_advScheme(27)=33,
(PID.TID 0000.0001) > PTRACERS_diffKh(27)=0.E3,
(PID.TID 0000.0001) > PTRACERS_diffKr(27)=1.E-5,
(PID.TID 0000.0001) > PTRACERS_useGMRedi(27)=.FALSE.,
(PID.TID 0000.0001) > PTRACERS_useKPP(27)=.TRUE.,
(PID.TID 0000.0001) > PTRACERS_initialFile(27)='../input/input/loc1_N_biomass_janprof.bin',
(PID.TID 0000.0001) ># tracer 28 - Nitrogen Biomass: Plankton(7)
(PID.TID 0000.0001) > PTRACERS_names(28)='BIO_2_007',
(PID.TID 0000.0001) > PTRACERS_units(28)='mmol N/m^3',
(PID.TID 0000.0001) > PTRACERS_advScheme(28)=33,
(PID.TID 0000.0001) > PTRACERS_diffKh(28)=0.E3,
(PID.TID 0000.0001) > PTRACERS_diffKr(28)=1.E-5,
(PID.TID 0000.0001) > PTRACERS_useGMRedi(28)=.FALSE.,
(PID.TID 0000.0001) > PTRACERS_useKPP(28)=.TRUE.,
(PID.TID 0000.0001) > PTRACERS_initialFile(28)='../input/input/loc1_N_biomass_janprof.bin',
(PID.TID 0000.0001) ># tracer 29 - Nitrogen Biomass: Plankton(8)
(PID.TID 0000.0001) > PTRACERS_names(29)='BIO_2_008',
(PID.TID 0000.0001) > PTRACERS_units(29)='mmol N/m^3',
(PID.TID 0000.0001) > PTRACERS_advScheme(29)=33,
(PID.TID 0000.0001) > PTRACERS_diffKh(29)=0.E3,
(PID.TID 0000.0001) > PTRACERS_diffKr(29)=1.E-5,
(PID.TID 0000.0001) > PTRACERS_useGMRedi(29)=.FALSE.,
(PID.TID 0000.0001) > PTRACERS_useKPP(29)=.TRUE.,
(PID.TID 0000.0001) > PTRACERS_initialFile(29)='../input/input/loc1_N_biomass_janprof.bin',
(PID.TID 0000.0001) ># tracer 30 - Nitrogen Biomass: Plankton(9)
(PID.TID 0000.0001) > PTRACERS_names(30)='BIO_2_009',
(PID.TID 0000.0001) > PTRACERS_units(30)='mmol N/m^3',
(PID.TID 0000.0001) > PTRACERS_advScheme(30)=33,
(PID.TID 0000.0001) > PTRACERS_diffKh(30)=0.E3,
(PID.TID 0000.0001) > PTRACERS_diffKr(30)=1.E-5,
(PID.TID 0000.0001) > PTRACERS_useGMRedi(30)=.FALSE.,
(PID.TID 0000.0001) > PTRACERS_useKPP(30)=.TRUE.,
(PID.TID 0000.0001) > PTRACERS_initialFile(30)='../input/input/loc1_N_biomass_janprof.bin',
(PID.TID 0000.0001) ># tracer 31 - Nitrogen Biomass: Plankton(10)
(PID.TID 0000.0001) > PTRACERS_names(31)='BIO_2_010',
(PID.TID 0000.0001) > PTRACERS_units(31)='mmol N/m^3',
(PID.TID 0000.0001) > PTRACERS_advScheme(31)=33,
(PID.TID 0000.0001) > PTRACERS_diffKh(31)=0.E3,
(PID.TID 0000.0001) > PTRACERS_diffKr(31)=1.E-5,
(PID.TID 0000.0001) > PTRACERS_useGMRedi(31)=.FALSE.,
(PID.TID 0000.0001) > PTRACERS_useKPP(31)=.TRUE.,
(PID.TID 0000.0001) > PTRACERS_initialFile(31)='../input/input/loc1_N_biomass_janprof.bin',
(PID.TID 0000.0001) ># tracer 32 - Nitrogen Biomass: Plankton(11)
(PID.TID 0000.0001) > PTRACERS_names(32)='BIO_2_011',
(PID.TID 0000.0001) > PTRACERS_units(32)='mmol N/m^3',
(PID.TID 0000.0001) > PTRACERS_advScheme(32)=33,
(PID.TID 0000.0001) > PTRACERS_diffKh(32)=0.E3,
(PID.TID 0000.0001) > PTRACERS_diffKr(32)=1.E-5,
(PID.TID 0000.0001) > PTRACERS_useGMRedi(32)=.FALSE.,
(PID.TID 0000.0001) > PTRACERS_useKPP(32)=.TRUE.,
(PID.TID 0000.0001) > PTRACERS_initialFile(32)='../input/input/loc1_N_biomass_janprof.bin',
(PID.TID 0000.0001) ># tracer 33 - Nitrogen Biomass: Plankton(12)
(PID.TID 0000.0001) > PTRACERS_names(33)='BIO_2_012',
(PID.TID 0000.0001) > PTRACERS_units(33)='mmol N/m^3',
(PID.TID 0000.0001) > PTRACERS_advScheme(33)=33,
(PID.TID 0000.0001) > PTRACERS_diffKh(33)=0.E3,
(PID.TID 0000.0001) > PTRACERS_diffKr(33)=1.E-5,
(PID.TID 0000.0001) > PTRACERS_useGMRedi(33)=.FALSE.,
(PID.TID 0000.0001) > PTRACERS_useKPP(33)=.TRUE.,
(PID.TID 0000.0001) > PTRACERS_initialFile(33)='../input/input/loc1_N_biomass_janprof.bin',
(PID.TID 0000.0001) ># tracer 34 - Nitrogen Biomass: Plankton(13)
(PID.TID 0000.0001) > PTRACERS_names(34)='BIO_2_013',
(PID.TID 0000.0001) > PTRACERS_units(34)='mmol N/m^3',
(PID.TID 0000.0001) > PTRACERS_advScheme(34)=33,
(PID.TID 0000.0001) > PTRACERS_diffKh(34)=0.E3,
(PID.TID 0000.0001) > PTRACERS_diffKr(34)=1.E-5,
(PID.TID 0000.0001) > PTRACERS_useGMRedi(34)=.FALSE.,
(PID.TID 0000.0001) > PTRACERS_useKPP(34)=.TRUE.,
(PID.TID 0000.0001) > PTRACERS_initialFile(34)='../input/input/loc1_N_biomass_janprof.bin',
(PID.TID 0000.0001) ># tracer 35 - Nitrogen Biomass: Plankton(14)
(PID.TID 0000.0001) > PTRACERS_names(35)='BIO_2_014',
(PID.TID 0000.0001) > PTRACERS_units(35)='mmol N/m^3',
(PID.TID 0000.0001) > PTRACERS_advScheme(35)=33,
(PID.TID 0000.0001) > PTRACERS_diffKh(35)=0.E3,
(PID.TID 0000.0001) > PTRACERS_diffKr(35)=1.E-5,
(PID.TID 0000.0001) > PTRACERS_useGMRedi(35)=.FALSE.,
(PID.TID 0000.0001) > PTRACERS_useKPP(35)=.TRUE.,
(PID.TID 0000.0001) > PTRACERS_initialFile(35)='../input/input/loc1_N_biomass_janprof.bin',
(PID.TID 0000.0001) ># tracer 36 - Nitrogen Biomass: Plankton(15)
(PID.TID 0000.0001) > PTRACERS_names(36)='BIO_2_015',
(PID.TID 0000.0001) > PTRACERS_units(36)='mmol N/m^3',
(PID.TID 0000.0001) > PTRACERS_advScheme(36)=33,
(PID.TID 0000.0001) > PTRACERS_diffKh(36)=0.E3,
(PID.TID 0000.0001) > PTRACERS_diffKr(36)=1.E-5,
(PID.TID 0000.0001) > PTRACERS_useGMRedi(36)=.FALSE.,
(PID.TID 0000.0001) > PTRACERS_useKPP(36)=.TRUE.,
(PID.TID 0000.0001) > PTRACERS_initialFile(36)='../input/input/loc1_N_biomass_janprof.bin',
(PID.TID 0000.0001) ># tracer 37 - Nitrogen Biomass: Plankton(16)
(PID.TID 0000.0001) > PTRACERS_names(37)='BIO_2_016',
(PID.TID 0000.0001) > PTRACERS_units(37)='mmol N/m^3',
(PID.TID 0000.0001) > PTRACERS_advScheme(37)=33,
(PID.TID 0000.0001) > PTRACERS_diffKh(37)=0.E3,
(PID.TID 0000.0001) > PTRACERS_diffKr(37)=1.E-5,
(PID.TID 0000.0001) > PTRACERS_useGMRedi(37)=.FALSE.,
(PID.TID 0000.0001) > PTRACERS_useKPP(37)=.TRUE.,
(PID.TID 0000.0001) > PTRACERS_initialFile(37)='../input/input/loc1_N_biomass_janprof.bin',
(PID.TID 0000.0001) ># tracer 38 - Iron Biomass: Plankton(1)
(PID.TID 0000.0001) > PTRACERS_names(38)='BIO_3_001',
(PID.TID 0000.0001) > PTRACERS_units(38)='mmol Fe/m^3',
(PID.TID 0000.0001) > PTRACERS_advScheme(38)=33,
(PID.TID 0000.0001) > PTRACERS_diffKh(38)=0.E3,
(PID.TID 0000.0001) > PTRACERS_diffKr(38)=1.E-5,
(PID.TID 0000.0001) > PTRACERS_useGMRedi(38)=.FALSE.,
(PID.TID 0000.0001) > PTRACERS_useKPP(38)=.TRUE.,
(PID.TID 0000.0001) > PTRACERS_initialFile(38)='../input/input/loc1_Fe_biomass_janprof.bin',
(PID.TID 0000.0001) ># tracer 39 - Iron Biomass: Plankton(2)
(PID.TID 0000.0001) > PTRACERS_names(39)='BIO_3_002',
(PID.TID 0000.0001) > PTRACERS_units(39)='mmol Fe/m^3',
(PID.TID 0000.0001) > PTRACERS_advScheme(39)=33,
(PID.TID 0000.0001) > PTRACERS_diffKh(39)=0.E3,
(PID.TID 0000.0001) > PTRACERS_diffKr(39)=1.E-5,
(PID.TID 0000.0001) > PTRACERS_useGMRedi(39)=.FALSE.,
(PID.TID 0000.0001) > PTRACERS_useKPP(39)=.TRUE.,
(PID.TID 0000.0001) > PTRACERS_initialFile(39)='../input/input/loc1_Fe_biomass_janprof.bin',
(PID.TID 0000.0001) ># tracer 40 - Iron Biomass: Plankton(3)
(PID.TID 0000.0001) > PTRACERS_names(40)='BIO_3_003',
(PID.TID 0000.0001) > PTRACERS_units(40)='mmol Fe/m^3',
(PID.TID 0000.0001) > PTRACERS_advScheme(40)=33,
(PID.TID 0000.0001) > PTRACERS_diffKh(40)=0.E3,
(PID.TID 0000.0001) > PTRACERS_diffKr(40)=1.E-5,
(PID.TID 0000.0001) > PTRACERS_useGMRedi(40)=.FALSE.,
(PID.TID 0000.0001) > PTRACERS_useKPP(40)=.TRUE.,
(PID.TID 0000.0001) > PTRACERS_initialFile(40)='../input/input/loc1_Fe_biomass_janprof.bin',
(PID.TID 0000.0001) ># tracer 41 - Iron Biomass: Plankton(4)
(PID.TID 0000.0001) > PTRACERS_names(41)='BIO_3_004',
(PID.TID 0000.0001) > PTRACERS_units(41)='mmol Fe/m^3',
(PID.TID 0000.0001) > PTRACERS_advScheme(41)=33,
(PID.TID 0000.0001) > PTRACERS_diffKh(41)=0.E3,
(PID.TID 0000.0001) > PTRACERS_diffKr(41)=1.E-5,
(PID.TID 0000.0001) > PTRACERS_useGMRedi(41)=.FALSE.,
(PID.TID 0000.0001) > PTRACERS_useKPP(41)=.TRUE.,
(PID.TID 0000.0001) > PTRACERS_initialFile(41)='../input/input/loc1_Fe_biomass_janprof.bin',
(PID.TID 0000.0001) ># tracer 42 - Iron Biomass: Plankton(5)
(PID.TID 0000.0001) > PTRACERS_names(42)='BIO_3_005',
(PID.TID 0000.0001) > PTRACERS_units(42)='mmol Fe/m^3',
(PID.TID 0000.0001) > PTRACERS_advScheme(42)=33,
(PID.TID 0000.0001) > PTRACERS_diffKh(42)=0.E3,
(PID.TID 0000.0001) > PTRACERS_diffKr(42)=1.E-5,
(PID.TID 0000.0001) > PTRACERS_useGMRedi(42)=.FALSE.,
(PID.TID 0000.0001) > PTRACERS_useKPP(42)=.TRUE.,
(PID.TID 0000.0001) > PTRACERS_initialFile(42)='../input/input/loc1_Fe_biomass_janprof.bin',
(PID.TID 0000.0001) ># tracer 43 - Iron Biomass: Plankton(6)
(PID.TID 0000.0001) > PTRACERS_names(43)='BIO_3_006',
(PID.TID 0000.0001) > PTRACERS_units(43)='mmol Fe/m^3',
(PID.TID 0000.0001) > PTRACERS_advScheme(43)=33,
(PID.TID 0000.0001) > PTRACERS_diffKh(43)=0.E3,
(PID.TID 0000.0001) > PTRACERS_diffKr(43)=1.E-5,
(PID.TID 0000.0001) > PTRACERS_useGMRedi(43)=.FALSE.,
(PID.TID 0000.0001) > PTRACERS_useKPP(43)=.TRUE.,
(PID.TID 0000.0001) > PTRACERS_initialFile(43)='../input/input/loc1_Fe_biomass_janprof.bin',
(PID.TID 0000.0001) ># tracer 44 - Iron Biomass: Plankton(7)
(PID.TID 0000.0001) > PTRACERS_names(44)='BIO_3_007',
(PID.TID 0000.0001) > PTRACERS_units(44)='mmol Fe/m^3',
(PID.TID 0000.0001) > PTRACERS_advScheme(44)=33,
(PID.TID 0000.0001) > PTRACERS_diffKh(44)=0.E3,
(PID.TID 0000.0001) > PTRACERS_diffKr(44)=1.E-5,
(PID.TID 0000.0001) > PTRACERS_useGMRedi(44)=.FALSE.,
(PID.TID 0000.0001) > PTRACERS_useKPP(44)=.TRUE.,
(PID.TID 0000.0001) > PTRACERS_initialFile(44)='../input/input/loc1_Fe_biomass_janprof.bin',
(PID.TID 0000.0001) ># tracer 45 - Iron Biomass: Plankton(8)
(PID.TID 0000.0001) > PTRACERS_names(45)='BIO_3_008',
(PID.TID 0000.0001) > PTRACERS_units(45)='mmol Fe/m^3',
(PID.TID 0000.0001) > PTRACERS_advScheme(45)=33,
(PID.TID 0000.0001) > PTRACERS_diffKh(45)=0.E3,
(PID.TID 0000.0001) > PTRACERS_diffKr(45)=1.E-5,
(PID.TID 0000.0001) > PTRACERS_useGMRedi(45)=.FALSE.,
(PID.TID 0000.0001) > PTRACERS_useKPP(45)=.TRUE.,
(PID.TID 0000.0001) > PTRACERS_initialFile(45)='../input/input/loc1_Fe_biomass_janprof.bin',
(PID.TID 0000.0001) ># tracer 46 - Iron Biomass: Plankton(9)
(PID.TID 0000.0001) > PTRACERS_names(46)='BIO_3_009',
(PID.TID 0000.0001) > PTRACERS_units(46)='mmol Fe/m^3',
(PID.TID 0000.0001) > PTRACERS_advScheme(46)=33,
(PID.TID 0000.0001) > PTRACERS_diffKh(46)=0.E3,
(PID.TID 0000.0001) > PTRACERS_diffKr(46)=1.E-5,
(PID.TID 0000.0001) > PTRACERS_useGMRedi(46)=.FALSE.,
(PID.TID 0000.0001) > PTRACERS_useKPP(46)=.TRUE.,
(PID.TID 0000.0001) > PTRACERS_initialFile(46)='../input/input/loc1_Fe_biomass_janprof.bin',
(PID.TID 0000.0001) ># tracer 47 - Iron Biomass: Plankton(10)
(PID.TID 0000.0001) > PTRACERS_names(47)='BIO_3_010',
(PID.TID 0000.0001) > PTRACERS_units(47)='mmol Fe/m^3',
(PID.TID 0000.0001) > PTRACERS_advScheme(47)=33,
(PID.TID 0000.0001) > PTRACERS_diffKh(47)=0.E3,
(PID.TID 0000.0001) > PTRACERS_diffKr(47)=1.E-5,
(PID.TID 0000.0001) > PTRACERS_useGMRedi(47)=.FALSE.,
(PID.TID 0000.0001) > PTRACERS_useKPP(47)=.TRUE.,
(PID.TID 0000.0001) > PTRACERS_initialFile(47)='../input/input/loc1_Fe_biomass_janprof.bin',
(PID.TID 0000.0001) ># tracer 48 - Iron Biomass: Plankton(11)
(PID.TID 0000.0001) > PTRACERS_names(48)='BIO_3_011',
(PID.TID 0000.0001) > PTRACERS_units(48)='mmol Fe/m^3',
(PID.TID 0000.0001) > PTRACERS_advScheme(48)=33,
(PID.TID 0000.0001) > PTRACERS_diffKh(48)=0.E3,
(PID.TID 0000.0001) > PTRACERS_diffKr(48)=1.E-5,
(PID.TID 0000.0001) > PTRACERS_useGMRedi(48)=.FALSE.,
(PID.TID 0000.0001) > PTRACERS_useKPP(48)=.TRUE.,
(PID.TID 0000.0001) > PTRACERS_initialFile(48)='../input/input/loc1_Fe_biomass_janprof.bin',
(PID.TID 0000.0001) ># tracer 49 - Iron Biomass: Plankton(12)
(PID.TID 0000.0001) > PTRACERS_names(49)='BIO_3_012',
(PID.TID 0000.0001) > PTRACERS_units(49)='mmol Fe/m^3',
(PID.TID 0000.0001) > PTRACERS_advScheme(49)=33,
(PID.TID 0000.0001) > PTRACERS_diffKh(49)=0.E3,
(PID.TID 0000.0001) > PTRACERS_diffKr(49)=1.E-5,
(PID.TID 0000.0001) > PTRACERS_useGMRedi(49)=.FALSE.,
(PID.TID 0000.0001) > PTRACERS_useKPP(49)=.TRUE.,
(PID.TID 0000.0001) > PTRACERS_initialFile(49)='../input/input/loc1_Fe_biomass_janprof.bin',
(PID.TID 0000.0001) ># tracer 50 - Iron Biomass: Plankton(13)
(PID.TID 0000.0001) > PTRACERS_names(50)='BIO_3_013',
(PID.TID 0000.0001) > PTRACERS_units(50)='mmol Fe/m^3',
(PID.TID 0000.0001) > PTRACERS_advScheme(50)=33,
(PID.TID 0000.0001) > PTRACERS_diffKh(50)=0.E3,
(PID.TID 0000.0001) > PTRACERS_diffKr(50)=1.E-5,
(PID.TID 0000.0001) > PTRACERS_useGMRedi(50)=.FALSE.,
(PID.TID 0000.0001) > PTRACERS_useKPP(50)=.TRUE.,
(PID.TID 0000.0001) > PTRACERS_initialFile(50)='../input/input/loc1_Fe_biomass_janprof.bin',
(PID.TID 0000.0001) ># tracer 51 - Iron Biomass: Plankton(14)
(PID.TID 0000.0001) > PTRACERS_names(51)='BIO_3_014',
(PID.TID 0000.0001) > PTRACERS_units(51)='mmol Fe/m^3',
(PID.TID 0000.0001) > PTRACERS_advScheme(51)=33,
(PID.TID 0000.0001) > PTRACERS_diffKh(51)=0.E3,
(PID.TID 0000.0001) > PTRACERS_diffKr(51)=1.E-5,
(PID.TID 0000.0001) > PTRACERS_useGMRedi(51)=.FALSE.,
(PID.TID 0000.0001) > PTRACERS_useKPP(51)=.TRUE.,
(PID.TID 0000.0001) > PTRACERS_initialFile(51)='../input/input/loc1_Fe_biomass_janprof.bin',
(PID.TID 0000.0001) ># tracer 52 - Iron Biomass: Plankton(15)
(PID.TID 0000.0001) > PTRACERS_names(52)='BIO_3_015',
(PID.TID 0000.0001) > PTRACERS_units(52)='mmol Fe/m^3',
(PID.TID 0000.0001) > PTRACERS_advScheme(52)=33,
(PID.TID 0000.0001) > PTRACERS_diffKh(52)=0.E3,
(PID.TID 0000.0001) > PTRACERS_diffKr(52)=1.E-5,
(PID.TID 0000.0001) > PTRACERS_useGMRedi(52)=.FALSE.,
(PID.TID 0000.0001) > PTRACERS_useKPP(52)=.TRUE.,
(PID.TID 0000.0001) > PTRACERS_initialFile(52)='../input/input/loc1_Fe_biomass_janprof.bin',
(PID.TID 0000.0001) ># tracer 53 - Iron Biomass: Plankton(16)
(PID.TID 0000.0001) > PTRACERS_names(53)='BIO_3_016',
(PID.TID 0000.0001) > PTRACERS_units(53)='mmol Fe/m^3',
(PID.TID 0000.0001) > PTRACERS_advScheme(53)=33,
(PID.TID 0000.0001) > PTRACERS_diffKh(53)=0.E3,
(PID.TID 0000.0001) > PTRACERS_diffKr(53)=1.E-5,
(PID.TID 0000.0001) > PTRACERS_useGMRedi(53)=.FALSE.,
(PID.TID 0000.0001) > PTRACERS_useKPP(53)=.TRUE.,
(PID.TID 0000.0001) > PTRACERS_initialFile(53)='../input/input/loc1_Fe_biomass_janprof.bin',
(PID.TID 0000.0001) ># tracer 54 - Chlorophyll Biomass: Plankton(1)
(PID.TID 0000.0001) > PTRACERS_names(54)='BIO_4_001',
(PID.TID 0000.0001) > PTRACERS_units(54)='mg Chl/m^3',
(PID.TID 0000.0001) > PTRACERS_advScheme(54)=33,
(PID.TID 0000.0001) > PTRACERS_diffKh(54)=0.E3,
(PID.TID 0000.0001) > PTRACERS_diffKr(54)=1.E-5,
(PID.TID 0000.0001) > PTRACERS_useGMRedi(54)=.FALSE.,
(PID.TID 0000.0001) > PTRACERS_useKPP(54)=.TRUE.,
(PID.TID 0000.0001) > PTRACERS_initialFile(54)='../input/input/loc1_chlorophyll_janprof.bin',
(PID.TID 0000.0001) ># tracer 55 - Chlorophyll Biomass: Plankton(2)
(PID.TID 0000.0001) > PTRACERS_names(55)='BIO_4_002',
(PID.TID 0000.0001) > PTRACERS_units(55)='mg Chl/m^3',
(PID.TID 0000.0001) > PTRACERS_advScheme(55)=33,
(PID.TID 0000.0001) > PTRACERS_diffKh(55)=0.E3,
(PID.TID 0000.0001) > PTRACERS_diffKr(55)=1.E-5,
(PID.TID 0000.0001) > PTRACERS_useGMRedi(55)=.FALSE.,
(PID.TID 0000.0001) > PTRACERS_useKPP(55)=.TRUE.,
(PID.TID 0000.0001) > PTRACERS_initialFile(55)='../input/input/loc1_chlorophyll_janprof.bin',
(PID.TID 0000.0001) ># tracer 56 - Chlorophyll Biomass: Plankton(3)
(PID.TID 0000.0001) > PTRACERS_names(56)='BIO_4_003',
(PID.TID 0000.0001) > PTRACERS_units(56)='mg Chl/m^3',
(PID.TID 0000.0001) > PTRACERS_advScheme(56)=33,
(PID.TID 0000.0001) > PTRACERS_diffKh(56)=0.E3,
(PID.TID 0000.0001) > PTRACERS_diffKr(56)=1.E-5,
(PID.TID 0000.0001) > PTRACERS_useGMRedi(56)=.FALSE.,
(PID.TID 0000.0001) > PTRACERS_useKPP(56)=.TRUE.,
(PID.TID 0000.0001) > PTRACERS_initialFile(56)='../input/input/loc1_chlorophyll_janprof.bin',
(PID.TID 0000.0001) ># tracer 57 - Chlorophyll Biomass: Plankton(4)
(PID.TID 0000.0001) > PTRACERS_names(57)='BIO_4_004',
(PID.TID 0000.0001) > PTRACERS_units(57)='mg Chl/m^3',
(PID.TID 0000.0001) > PTRACERS_advScheme(57)=33,
(PID.TID 0000.0001) > PTRACERS_diffKh(57)=0.E3,
(PID.TID 0000.0001) > PTRACERS_diffKr(57)=1.E-5,
(PID.TID 0000.0001) > PTRACERS_useGMRedi(57)=.FALSE.,
(PID.TID 0000.0001) > PTRACERS_useKPP(57)=.TRUE.,
(PID.TID 0000.0001) > PTRACERS_initialFile(57)='../input/input/loc1_chlorophyll_janprof.bin',
(PID.TID 0000.0001) ># tracer 58 - Chlorophyll Biomass: Plankton(5)
(PID.TID 0000.0001) > PTRACERS_names(58)='BIO_4_005',
(PID.TID 0000.0001) > PTRACERS_units(58)='mg Chl/m^3',
(PID.TID 0000.0001) > PTRACERS_advScheme(58)=33,
(PID.TID 0000.0001) > PTRACERS_diffKh(58)=0.E3,
(PID.TID 0000.0001) > PTRACERS_diffKr(58)=1.E-5,
(PID.TID 0000.0001) > PTRACERS_useGMRedi(58)=.FALSE.,
(PID.TID 0000.0001) > PTRACERS_useKPP(58)=.TRUE.,
(PID.TID 0000.0001) > PTRACERS_initialFile(58)='../input/input/loc1_chlorophyll_janprof.bin',
(PID.TID 0000.0001) ># tracer 59 - Chlorophyll Biomass: Plankton(6)
(PID.TID 0000.0001) > PTRACERS_names(59)='BIO_4_006',
(PID.TID 0000.0001) > PTRACERS_units(59)='mg Chl/m^3',
(PID.TID 0000.0001) > PTRACERS_advScheme(59)=33,
(PID.TID 0000.0001) > PTRACERS_diffKh(59)=0.E3,
(PID.TID 0000.0001) > PTRACERS_diffKr(59)=1.E-5,
(PID.TID 0000.0001) > PTRACERS_useGMRedi(59)=.FALSE.,
(PID.TID 0000.0001) > PTRACERS_useKPP(59)=.TRUE.,
(PID.TID 0000.0001) > PTRACERS_initialFile(59)='../input/input/loc1_chlorophyll_janprof.bin',
(PID.TID 0000.0001) ># tracer 60 - Chlorophyll Biomass: Plankton(7)
(PID.TID 0000.0001) > PTRACERS_names(60)='BIO_4_007',
(PID.TID 0000.0001) > PTRACERS_units(60)='mg Chl/m^3',
(PID.TID 0000.0001) > PTRACERS_advScheme(60)=33,
(PID.TID 0000.0001) > PTRACERS_diffKh(60)=0.E3,
(PID.TID 0000.0001) > PTRACERS_diffKr(60)=1.E-5,
(PID.TID 0000.0001) > PTRACERS_useGMRedi(60)=.FALSE.,
(PID.TID 0000.0001) > PTRACERS_useKPP(60)=.TRUE.,
(PID.TID 0000.0001) > PTRACERS_initialFile(60)='../input/input/loc1_chlorophyll_janprof.bin',
(PID.TID 0000.0001) ># tracer 61 - Chlorophyll Biomass: Plankton(8)
(PID.TID 0000.0001) > PTRACERS_names(61)='BIO_4_008',
(PID.TID 0000.0001) > PTRACERS_units(61)='mg Chl/m^3',
(PID.TID 0000.0001) > PTRACERS_advScheme(61)=33,
(PID.TID 0000.0001) > PTRACERS_diffKh(61)=0.E3,
(PID.TID 0000.0001) > PTRACERS_diffKr(61)=1.E-5,
(PID.TID 0000.0001) > PTRACERS_useGMRedi(61)=.FALSE.,
(PID.TID 0000.0001) > PTRACERS_useKPP(61)=.TRUE.,
(PID.TID 0000.0001) > PTRACERS_initialFile(61)='../input/input/loc1_chlorophyll_janprof.bin',
(PID.TID 0000.0001) ># tracer 62 - Chlorophyll Biomass: Plankton(9)
(PID.TID 0000.0001) > PTRACERS_names(62)='BIO_4_009',
(PID.TID 0000.0001) > PTRACERS_units(62)='mg Chl/m^3',
(PID.TID 0000.0001) > PTRACERS_advScheme(62)=33,
(PID.TID 0000.0001) > PTRACERS_diffKh(62)=0.E3,
(PID.TID 0000.0001) > PTRACERS_diffKr(62)=1.E-5,
(PID.TID 0000.0001) > PTRACERS_useGMRedi(62)=.FALSE.,
(PID.TID 0000.0001) > PTRACERS_useKPP(62)=.TRUE.,
(PID.TID 0000.0001) > PTRACERS_initialFile(62)='../input/input/loc1_chlorophyll_janprof.bin',
(PID.TID 0000.0001) ># tracer 63 - Chlorophyll Biomass: Plankton(10)
(PID.TID 0000.0001) > PTRACERS_names(63)='BIO_4_010',
(PID.TID 0000.0001) > PTRACERS_units(63)='mg Chl/m^3',
(PID.TID 0000.0001) > PTRACERS_advScheme(63)=33,
(PID.TID 0000.0001) > PTRACERS_diffKh(63)=0.E3,
(PID.TID 0000.0001) > PTRACERS_diffKr(63)=1.E-5,
(PID.TID 0000.0001) > PTRACERS_useGMRedi(63)=.FALSE.,
(PID.TID 0000.0001) > PTRACERS_useKPP(63)=.TRUE.,
(PID.TID 0000.0001) > PTRACERS_initialFile(63)='../input/input/loc1_chlorophyll_janprof.bin',
(PID.TID 0000.0001) ># tracer 64 - Chlorophyll Biomass: Plankton(11)
(PID.TID 0000.0001) > PTRACERS_names(64)='BIO_4_011',
(PID.TID 0000.0001) > PTRACERS_units(64)='mg Chl/m^3',
(PID.TID 0000.0001) > PTRACERS_advScheme(64)=33,
(PID.TID 0000.0001) > PTRACERS_diffKh(64)=0.E3,
(PID.TID 0000.0001) > PTRACERS_diffKr(64)=1.E-5,
(PID.TID 0000.0001) > PTRACERS_useGMRedi(64)=.FALSE.,
(PID.TID 0000.0001) > PTRACERS_useKPP(64)=.TRUE.,
(PID.TID 0000.0001) > PTRACERS_initialFile(64)='../input/input/loc1_chlorophyll_janprof.bin',
(PID.TID 0000.0001) ># tracer 65 - Chlorophyll Biomass: Plankton(12)
(PID.TID 0000.0001) > PTRACERS_names(65)='BIO_4_012',
(PID.TID 0000.0001) > PTRACERS_units(65)='mg Chl/m^3',
(PID.TID 0000.0001) > PTRACERS_advScheme(65)=33,
(PID.TID 0000.0001) > PTRACERS_diffKh(65)=0.E3,
(PID.TID 0000.0001) > PTRACERS_diffKr(65)=1.E-5,
(PID.TID 0000.0001) > PTRACERS_useGMRedi(65)=.FALSE.,
(PID.TID 0000.0001) > PTRACERS_useKPP(65)=.TRUE.,
(PID.TID 0000.0001) > PTRACERS_initialFile(65)='../input/input/loc1_chlorophyll_janprof.bin',
(PID.TID 0000.0001) ># tracer 66 - Chlorophyll Biomass: Plankton(13)
(PID.TID 0000.0001) > PTRACERS_names(66)='BIO_4_013',
(PID.TID 0000.0001) > PTRACERS_units(66)='mg Chl/m^3',
(PID.TID 0000.0001) > PTRACERS_advScheme(66)=33,
(PID.TID 0000.0001) > PTRACERS_diffKh(66)=0.E3,
(PID.TID 0000.0001) > PTRACERS_diffKr(66)=1.E-5,
(PID.TID 0000.0001) > PTRACERS_useGMRedi(66)=.FALSE.,
(PID.TID 0000.0001) > PTRACERS_useKPP(66)=.TRUE.,
(PID.TID 0000.0001) > PTRACERS_initialFile(66)='../input/input/loc1_chlorophyll_janprof.bin',
(PID.TID 0000.0001) ># tracer 67 - Chlorophyll Biomass: Plankton(14)
(PID.TID 0000.0001) > PTRACERS_names(67)='BIO_4_014',
(PID.TID 0000.0001) > PTRACERS_units(67)='mg Chl/m^3',
(PID.TID 0000.0001) > PTRACERS_advScheme(67)=33,
(PID.TID 0000.0001) > PTRACERS_diffKh(67)=0.E3,
(PID.TID 0000.0001) > PTRACERS_diffKr(67)=1.E-5,
(PID.TID 0000.0001) > PTRACERS_useGMRedi(67)=.FALSE.,
(PID.TID 0000.0001) > PTRACERS_useKPP(67)=.TRUE.,
(PID.TID 0000.0001) > PTRACERS_initialFile(67)='../input/input/loc1_chlorophyll_janprof.bin',
(PID.TID 0000.0001) ># tracer 68 - Chlorophyll Biomass: Plankton(15)
(PID.TID 0000.0001) > PTRACERS_names(68)='BIO_4_015',
(PID.TID 0000.0001) > PTRACERS_units(68)='mg Chl/m^3',
(PID.TID 0000.0001) > PTRACERS_advScheme(68)=33,
(PID.TID 0000.0001) > PTRACERS_diffKh(68)=0.E3,
(PID.TID 0000.0001) > PTRACERS_diffKr(68)=1.E-5,
(PID.TID 0000.0001) > PTRACERS_useGMRedi(68)=.FALSE.,
(PID.TID 0000.0001) > PTRACERS_useKPP(68)=.TRUE.,
(PID.TID 0000.0001) > PTRACERS_initialFile(68)='../input/input/loc1_chlorophyll_janprof.bin',
(PID.TID 0000.0001) ># tracer 69 - Dissolved Organic Carbon
(PID.TID 0000.0001) > PTRACERS_names(69)='OM_1_1',
(PID.TID 0000.0001) > PTRACERS_units(69)='mmol C/m^3',
(PID.TID 0000.0001) > PTRACERS_advScheme(69)=33,
(PID.TID 0000.0001) > PTRACERS_diffKh(69)=0.E3,
(PID.TID 0000.0001) > PTRACERS_diffKr(69)=1.E-5,
(PID.TID 0000.0001) > PTRACERS_useGMRedi(69)=.FALSE.,
(PID.TID 0000.0001) > PTRACERS_useKPP(69)=.TRUE.,
(PID.TID 0000.0001) > PTRACERS_initialFile(69)='../input/input/loc1_DOC_janprof.bin',
(PID.TID 0000.0001) ># tracer 70 - Particulate Organic Carbon
(PID.TID 0000.0001) > PTRACERS_names(70)='OM_1_2',
(PID.TID 0000.0001) > PTRACERS_units(70)='mmol C/m^3',
(PID.TID 0000.0001) > PTRACERS_advScheme(70)=33,
(PID.TID 0000.0001) > PTRACERS_diffKh(70)=0.E3,
(PID.TID 0000.0001) > PTRACERS_diffKr(70)=1.E-5,
(PID.TID 0000.0001) > PTRACERS_useGMRedi(70)=.FALSE.,
(PID.TID 0000.0001) > PTRACERS_useKPP(70)=.TRUE.,
(PID.TID 0000.0001) > PTRACERS_initialFile(70)='../input/input/loc1_POC_janprof.bin',
(PID.TID 0000.0001) ># tracer 71 - Dissolved Organic Nitrogen
(PID.TID 0000.0001) > PTRACERS_names(71)='OM_2_1',
(PID.TID 0000.0001) > PTRACERS_units(71)='mmol N/m^3',
(PID.TID 0000.0001) > PTRACERS_advScheme(71)=33,
(PID.TID 0000.0001) > PTRACERS_diffKh(71)=0.E3,
(PID.TID 0000.0001) > PTRACERS_diffKr(71)=1.E-5,
(PID.TID 0000.0001) > PTRACERS_useGMRedi(71)=.FALSE.,
(PID.TID 0000.0001) > PTRACERS_useKPP(71)=.TRUE.,
(PID.TID 0000.0001) > PTRACERS_initialFile(71)='../input/input/loc1_DON_run83_janprof.bin',
(PID.TID 0000.0001) ># tracer 72 - Particulate Organic Nitrogen
(PID.TID 0000.0001) > PTRACERS_names(72)='OM_2_2',
(PID.TID 0000.0001) > PTRACERS_units(72)='mmol N/m^3',
(PID.TID 0000.0001) > PTRACERS_advScheme(72)=33,
(PID.TID 0000.0001) > PTRACERS_diffKh(72)=0.E3,
(PID.TID 0000.0001) > PTRACERS_diffKr(72)=1.E-5,
(PID.TID 0000.0001) > PTRACERS_useGMRedi(72)=.FALSE.,
(PID.TID 0000.0001) > PTRACERS_useKPP(72)=.TRUE.,
(PID.TID 0000.0001) > PTRACERS_initialFile(72)='../input/input/loc1_PON_run83_janprof.bin',
(PID.TID 0000.0001) ># tracer 73 - Dissolved Organic Iron
(PID.TID 0000.0001) > PTRACERS_names(73)='OM_3_1',
(PID.TID 0000.0001) > PTRACERS_units(73)='mmol Fe/m^3',
(PID.TID 0000.0001) > PTRACERS_advScheme(73)=33,
(PID.TID 0000.0001) > PTRACERS_diffKh(73)=0.E3,
(PID.TID 0000.0001) > PTRACERS_diffKr(73)=1.E-5,
(PID.TID 0000.0001) > PTRACERS_useGMRedi(73)=.FALSE.,
(PID.TID 0000.0001) > PTRACERS_useKPP(73)=.TRUE.,
(PID.TID 0000.0001) > PTRACERS_initialFile(73)='../input/input/loc1_DOFe_run83_janprof.bin',
(PID.TID 0000.0001) ># tracer 74 - Particulate Organic Iron
(PID.TID 0000.0001) > PTRACERS_names(74)='OM_3_2',
(PID.TID 0000.0001) > PTRACERS_units(74)='mmol Fe/m^3',
(PID.TID 0000.0001) > PTRACERS_advScheme(74)=33,
(PID.TID 0000.0001) > PTRACERS_diffKh(74)=0.E3,
(PID.TID 0000.0001) > PTRACERS_diffKr(74)=1.E-5,
(PID.TID 0000.0001) > PTRACERS_useGMRedi(74)=.FALSE.,
(PID.TID 0000.0001) > PTRACERS_useKPP(74)=.TRUE.,
(PID.TID 0000.0001) > PTRACERS_initialFile(74)='../input/input/loc1_POFe_run83_janprof.bin',
(PID.TID 0000.0001) > /
(PID.TID 0000.0001) 
(PID.TID 0000.0001)  PTRACERS_READPARMS: finished reading data.ptracers
(PID.TID 0000.0001)  GCHEM_READPARMS: opening data.gchem
(PID.TID 0000.0001)  OPEN_COPY_DATA_FILE: opening file data.gchem
(PID.TID 0000.0001) // =======================================================
(PID.TID 0000.0001) // Parameter file "data.gchem"
(PID.TID 0000.0001) // =======================================================
(PID.TID 0000.0001) > &GCHEM_PARM01
(PID.TID 0000.0001) >  useDARWIN=.TRUE.,
(PID.TID 0000.0001) >  nsubtime=3,
(PID.TID 0000.0001) > /
(PID.TID 0000.0001) 
(PID.TID 0000.0001)  GCHEM_READPARMS: finished reading data.gchem
(PID.TID 0000.0001)  DARWIN_READPARMS: opening data.darwin
(PID.TID 0000.0001)  OPEN_COPY_DATA_FILE: opening file data.darwin
(PID.TID 0000.0001) // =======================================================
(PID.TID 0000.0001) // Parameter file "data.darwin"
(PID.TID 0000.0001) // =======================================================
(PID.TID 0000.0001) > &DARWIN_FORCING
(PID.TID 0000.0001) > darwin_ironFile='../input/input/loc1_FeFlux_monsurf.bin',
(PID.TID 0000.0001) > darwin_PARFile='../input/input/loc1_PAR_monsurf.bin',
(PID.TID 0000.0001) > darwin_ForcingPeriod=2592000.,
(PID.TID 0000.0001) > darwin_ForcingCycle=31104000.,
(PID.TID 0000.0001) >#darwin_PO4_fluxFile='../input/input/ann_nphos_flux.bin',
(PID.TID 0000.0001) >#darwin_NO3_fluxFile='../input/input/ann_nnitr_flux.bin',
(PID.TID 0000.0001) >#darwin_Si_fluxFile='../input/input/ann_nsil_flux.bin',
(PID.TID 0000.0001) > darwin_seed=11231,
(PID.TID 0000.0001) > /
(PID.TID 0000.0001) 
(PID.TID 0000.0001)  DARWIN_READPARMS: finished reading data.darwin
(PID.TID 0000.0001) // ===================================
(PID.TID 0000.0001) // darwin parameters
(PID.TID 0000.0001) // ===================================
(PID.TID 0000.0001) darwin_seed = /* seed for random number generator */
(PID.TID 0000.0001)                   11231
(PID.TID 0000.0001)     ;
(PID.TID 0000.0001)  -----------------------------------
(PID.TID 0000.0001)  ===================================
(PID.TID 0000.0001) SET_PARMS: done
(PID.TID 0000.0001) Enter INI_VERTICAL_GRID: setInterFDr=    T ; setCenterDr=    F
(PID.TID 0000.0001) %MON XC_max                       =   3.3550000000000E+02
(PID.TID 0000.0001) %MON XC_min                       =   3.3550000000000E+02
(PID.TID 0000.0001) %MON XC_mean                      =   3.3550000000000E+02
(PID.TID 0000.0001) %MON XC_sd                        =   0.0000000000000E+00
(PID.TID 0000.0001) %MON XG_max                       =   3.3500000000000E+02
(PID.TID 0000.0001) %MON XG_min                       =   3.3500000000000E+02
(PID.TID 0000.0001) %MON XG_mean                      =   3.3500000000000E+02
(PID.TID 0000.0001) %MON XG_sd                        =   0.0000000000000E+00
(PID.TID 0000.0001) %MON DXC_max                      =   1.0603184087720E+05
(PID.TID 0000.0001) %MON DXC_min                      =   1.0603184087720E+05
(PID.TID 0000.0001) %MON DXC_mean                     =   1.0603184087720E+05
(PID.TID 0000.0001) %MON DXC_sd                       =   0.0000000000000E+00
(PID.TID 0000.0001) %MON DXF_max                      =   1.0603184087720E+05
(PID.TID 0000.0001) %MON DXF_min                      =   1.0603184087720E+05
(PID.TID 0000.0001) %MON DXF_mean                     =   1.0603184087720E+05
(PID.TID 0000.0001) %MON DXF_sd                       =   0.0000000000000E+00
(PID.TID 0000.0001) %MON DXG_max                      =   1.0573606049669E+05
(PID.TID 0000.0001) %MON DXG_min                      =   1.0573606049669E+05
(PID.TID 0000.0001) %MON DXG_mean                     =   1.0573606049669E+05
(PID.TID 0000.0001) %MON DXG_sd                       =   0.0000000000000E+00
(PID.TID 0000.0001) %MON DXV_max                      =   1.0573606049669E+05
(PID.TID 0000.0001) %MON DXV_min                      =   1.0573606049669E+05
(PID.TID 0000.0001) %MON DXV_mean                     =   1.0573606049669E+05
(PID.TID 0000.0001) %MON DXV_sd                       =   0.0000000000000E+00
(PID.TID 0000.0001) %MON YC_max                       =  -1.7500000000000E+01
(PID.TID 0000.0001) %MON YC_min                       =  -1.7500000000000E+01
(PID.TID 0000.0001) %MON YC_mean                      =  -1.7500000000000E+01
(PID.TID 0000.0001) %MON YC_sd                        =   0.0000000000000E+00
(PID.TID 0000.0001) %MON YG_max                       =  -1.8000000000000E+01
(PID.TID 0000.0001) %MON YG_min                       =  -1.8000000000000E+01
(PID.TID 0000.0001) %MON YG_mean                      =  -1.8000000000000E+01
(PID.TID 0000.0001) %MON YG_sd                        =   0.0000000000000E+00
(PID.TID 0000.0001) %MON DYC_max                      =   1.1117747335204E+05
(PID.TID 0000.0001) %MON DYC_min                      =   1.1117747335204E+05
(PID.TID 0000.0001) %MON DYC_mean                     =   1.1117747335204E+05
(PID.TID 0000.0001) %MON DYC_sd                       =   0.0000000000000E+00
(PID.TID 0000.0001) %MON DYF_max                      =   1.1117747335204E+05
(PID.TID 0000.0001) %MON DYF_min                      =   1.1117747335204E+05
(PID.TID 0000.0001) %MON DYF_mean                     =   1.1117747335204E+05
(PID.TID 0000.0001) %MON DYF_sd                       =   0.0000000000000E+00
(PID.TID 0000.0001) %MON DYG_max                      =   1.1117747335204E+05
(PID.TID 0000.0001) %MON DYG_min                      =   1.1117747335204E+05
(PID.TID 0000.0001) %MON DYG_mean                     =   1.1117747335204E+05
(PID.TID 0000.0001) %MON DYG_sd                       =   0.0000000000000E+00
(PID.TID 0000.0001) %MON DYU_max                      =   1.1117747335204E+05
(PID.TID 0000.0001) %MON DYU_min                      =   1.1117747335204E+05
(PID.TID 0000.0001) %MON DYU_mean                     =   1.1117747335204E+05
(PID.TID 0000.0001) %MON DYU_sd                       =   0.0000000000000E+00
(PID.TID 0000.0001) %MON RA_max                       =   1.1788202541770E+10
(PID.TID 0000.0001) %MON RA_min                       =   1.1788202541770E+10
(PID.TID 0000.0001) %MON RA_mean                      =   1.1788202541770E+10
(PID.TID 0000.0001) %MON RA_sd                        =   0.0000000000000E+00
(PID.TID 0000.0001) %MON RAW_max                      =   1.1788202541770E+10
(PID.TID 0000.0001) %MON RAW_min                      =   1.1788202541770E+10
(PID.TID 0000.0001) %MON RAW_mean                     =   1.1788202541770E+10
(PID.TID 0000.0001) %MON RAW_sd                       =   0.0000000000000E+00
(PID.TID 0000.0001) %MON RAS_max                      =   1.1755318843774E+10
(PID.TID 0000.0001) %MON RAS_min                      =   1.1755318843774E+10
(PID.TID 0000.0001) %MON RAS_mean                     =   1.1755318843774E+10
(PID.TID 0000.0001) %MON RAS_sd                       =   0.0000000000000E+00
(PID.TID 0000.0001) %MON RAZ_max                      =   1.1755318843774E+10
(PID.TID 0000.0001) %MON RAZ_min                      =   1.1755318843774E+10
(PID.TID 0000.0001) %MON RAZ_mean                     =   1.1755318843774E+10
(PID.TID 0000.0001) %MON RAZ_sd                       =   0.0000000000000E+00
(PID.TID 0000.0001) %MON AngleCS_max                  =   1.0000000000000E+00
(PID.TID 0000.0001) %MON AngleCS_min                  =   1.0000000000000E+00
(PID.TID 0000.0001) %MON AngleCS_mean                 =   1.0000000000000E+00
(PID.TID 0000.0001) %MON AngleCS_sd                   =   0.0000000000000E+00
(PID.TID 0000.0001) %MON AngleSN_max                  =   0.0000000000000E+00
(PID.TID 0000.0001) %MON AngleSN_min                  =   0.0000000000000E+00
(PID.TID 0000.0001) %MON AngleSN_mean                 =   0.0000000000000E+00
(PID.TID 0000.0001) %MON AngleSN_sd                   =   0.0000000000000E+00
(PID.TID 0000.0001)  MDS_READ_FIELD: opening global file: ../input/input/bathyneg.bin
(PID.TID 0000.0001) // =======================================================
(PID.TID 0000.0001) // Field Model R_low (ini_masks_etc)
(PID.TID 0000.0001) // CMIN =         -3.495000000000000E+03
(PID.TID 0000.0001) // CMAX =         -3.495000000000000E+03
(PID.TID 0000.0001) // CINT =          0.000000000000000E+00
(PID.TID 0000.0001) // SYMBOLS (CMIN->CMAX): -abcdefghijklmnopqrstuvwxyz+
(PID.TID 0000.0001) //                  0.0: .
(PID.TID 0000.0001) // RANGE I (Lo:Hi:Step):(    -1:     3:     1)
(PID.TID 0000.0001) // RANGE J (Lo:Hi:Step):(     3:    -1:    -1)
(PID.TID 0000.0001) // RANGE K (Lo:Hi:Step):(   1:   1:   1)
(PID.TID 0000.0001) // =======================================================
(PID.TID 0000.0001) // =======================================================
(PID.TID 0000.0001) // END OF FIELD                                          =
(PID.TID 0000.0001) // =======================================================
(PID.TID 0000.0001) 
(PID.TID 0000.0001) // =======================================================
(PID.TID 0000.0001) // Field Model Ro_surf (ini_masks_etc)
(PID.TID 0000.0001) // CMIN =          1.000000000000000E+32
(PID.TID 0000.0001) // CMAX =         -1.000000000000000E+32
(PID.TID 0000.0001) // CINT =          0.000000000000000E+00
(PID.TID 0000.0001) // SYMBOLS (CMIN->CMAX): -abcdefghijklmnopqrstuvwxyz+
(PID.TID 0000.0001) //                  0.0: .
(PID.TID 0000.0001) // RANGE I (Lo:Hi:Step):(    -1:     3:     1)
(PID.TID 0000.0001) // RANGE J (Lo:Hi:Step):(     3:    -1:    -1)
(PID.TID 0000.0001) // RANGE K (Lo:Hi:Step):(   1:   1:   1)
(PID.TID 0000.0001) // =======================================================
(PID.TID 0000.0001) // =======================================================
(PID.TID 0000.0001) // END OF FIELD                                          =
(PID.TID 0000.0001) // =======================================================
(PID.TID 0000.0001) 
(PID.TID 0000.0001) // =======================================================
(PID.TID 0000.0001) // Field hFacC at iteration          0
(PID.TID 0000.0001) // CMIN =          1.000000000000000E+00
(PID.TID 0000.0001) // CMAX =          1.000000000000000E+00
(PID.TID 0000.0001) // CINT =          0.000000000000000E+00
(PID.TID 0000.0001) // SYMBOLS (CMIN->CMAX): -abcdefghijklmnopqrstuvwxyz+
(PID.TID 0000.0001) //                  0.0: .
(PID.TID 0000.0001) // RANGE I (Lo:Hi:Step):(    -1:     3:     1)
(PID.TID 0000.0001) // RANGE J (Lo:Hi:Step):(     3:    -1:    -1)
(PID.TID 0000.0001) // RANGE K (Lo:Hi:Step):(   1:   1:   1)
(PID.TID 0000.0001) // =======================================================
(PID.TID 0000.0001) // =======================================================
(PID.TID 0000.0001) // END OF FIELD                                          =
(PID.TID 0000.0001) // =======================================================
(PID.TID 0000.0001) 
(PID.TID 0000.0001) // =======================================================
(PID.TID 0000.0001) // Field hFacW at iteration          0
(PID.TID 0000.0001) // CMIN =          1.000000000000000E+00
(PID.TID 0000.0001) // CMAX =          1.000000000000000E+00
(PID.TID 0000.0001) // CINT =          0.000000000000000E+00
(PID.TID 0000.0001) // SYMBOLS (CMIN->CMAX): -abcdefghijklmnopqrstuvwxyz+
(PID.TID 0000.0001) //                  0.0: .
(PID.TID 0000.0001) // RANGE I (Lo:Hi:Step):(    -1:     3:     1)
(PID.TID 0000.0001) // RANGE J (Lo:Hi:Step):(     3:    -1:    -1)
(PID.TID 0000.0001) // RANGE K (Lo:Hi:Step):(   1:   1:   1)
(PID.TID 0000.0001) // =======================================================
(PID.TID 0000.0001) // =======================================================
(PID.TID 0000.0001) // END OF FIELD                                          =
(PID.TID 0000.0001) // =======================================================
(PID.TID 0000.0001) 
(PID.TID 0000.0001) // =======================================================
(PID.TID 0000.0001) // Field hFacS at iteration          0
(PID.TID 0000.0001) // CMIN =          1.000000000000000E+00
(PID.TID 0000.0001) // CMAX =          1.000000000000000E+00
(PID.TID 0000.0001) // CINT =          0.000000000000000E+00
(PID.TID 0000.0001) // SYMBOLS (CMIN->CMAX): -abcdefghijklmnopqrstuvwxyz+
(PID.TID 0000.0001) //                  0.0: .
(PID.TID 0000.0001) // RANGE I (Lo:Hi:Step):(    -1:     3:     1)
(PID.TID 0000.0001) // RANGE J (Lo:Hi:Step):(     3:    -1:    -1)
(PID.TID 0000.0001) // RANGE K (Lo:Hi:Step):(   1:   1:   1)
(PID.TID 0000.0001) // =======================================================
(PID.TID 0000.0001) // =======================================================
(PID.TID 0000.0001) // END OF FIELD                                          =
(PID.TID 0000.0001) // =======================================================
(PID.TID 0000.0001) 
(PID.TID 0000.0001) GAD_INIT_FIXED: GAD_OlMinSize=  2  0  1
(PID.TID 0000.0001) 
(PID.TID 0000.0001) // ===================================
(PID.TID 0000.0001) // GAD parameters :
(PID.TID 0000.0001) // ===================================
(PID.TID 0000.0001) tempAdvScheme =   /* Temp. Horiz.Advection scheme selector */
(PID.TID 0000.0001)                       3
(PID.TID 0000.0001)     ;
(PID.TID 0000.0001) tempVertAdvScheme =   /* Temp. Vert. Advection scheme selector */
(PID.TID 0000.0001)                       3
(PID.TID 0000.0001)     ;
(PID.TID 0000.0001) tempMultiDimAdvec =   /* use Muti-Dim Advec method for Temp */
(PID.TID 0000.0001)                   F
(PID.TID 0000.0001)     ;
(PID.TID 0000.0001) tempSOM_Advection = /* use 2nd Order Moment Advection for Temp */
(PID.TID 0000.0001)                   F
(PID.TID 0000.0001)     ;
(PID.TID 0000.0001) AdamsBashforthGt = /* apply Adams-Bashforth extrapolation on Gt */
(PID.TID 0000.0001)                   T
(PID.TID 0000.0001)     ;
(PID.TID 0000.0001) AdamsBashforth_T = /* apply Adams-Bashforth extrapolation on Temp */
(PID.TID 0000.0001)                   F
(PID.TID 0000.0001)     ;
(PID.TID 0000.0001) saltAdvScheme =   /* Salt. Horiz.advection scheme selector */
(PID.TID 0000.0001)                       3
(PID.TID 0000.0001)     ;
(PID.TID 0000.0001) saltVertAdvScheme =   /* Salt. Vert. Advection scheme selector */
(PID.TID 0000.0001)                       3
(PID.TID 0000.0001)     ;
(PID.TID 0000.0001) saltMultiDimAdvec =   /* use Muti-Dim Advec method for Salt */
(PID.TID 0000.0001)                   F
(PID.TID 0000.0001)     ;
(PID.TID 0000.0001) saltSOM_Advection = /* use 2nd Order Moment Advection for Salt */
(PID.TID 0000.0001)                   F
(PID.TID 0000.0001)     ;
(PID.TID 0000.0001) AdamsBashforthGs = /* apply Adams-Bashforth extrapolation on Gs */
(PID.TID 0000.0001)                   F
(PID.TID 0000.0001)     ;
(PID.TID 0000.0001) AdamsBashforth_S = /* apply Adams-Bashforth extrapolation on Salt */
(PID.TID 0000.0001)                   F
(PID.TID 0000.0001)     ;
(PID.TID 0000.0001) // ===================================
(PID.TID 0000.0001) // =======================================================
(PID.TID 0000.0001) // Quota loading parameters
(PID.TID 0000.0001) // =======================================================
(PID.TID 0000.0001) %MON fCori_max                    =  -4.3855676645210E-05
(PID.TID 0000.0001) %MON fCori_min                    =  -4.3855676645210E-05
(PID.TID 0000.0001) %MON fCori_mean                   =  -4.3855676645210E-05
(PID.TID 0000.0001) %MON fCori_sd                     =   0.0000000000000E+00
(PID.TID 0000.0001) %MON fCoriG_max                   =  -4.5067801836625E-05
(PID.TID 0000.0001) %MON fCoriG_min                   =  -4.5067801836625E-05
(PID.TID 0000.0001) %MON fCoriG_mean                  =  -4.5067801836625E-05
(PID.TID 0000.0001) %MON fCoriG_sd                    =   0.0000000000000E+00
(PID.TID 0000.0001) %MON fCoriCos_max                 =   1.3909243610207E-04
(PID.TID 0000.0001) %MON fCoriCos_min                 =   1.3909243610207E-04
(PID.TID 0000.0001) %MON fCoriCos_mean                =   1.3909243610207E-04
(PID.TID 0000.0001) %MON fCoriCos_sd                  =   0.0000000000000E+00
(PID.TID 0000.0001) INI_CG2D: CG2D normalisation factor =  2.7288038648017932E-04
(PID.TID 0000.0001) 
(PID.TID 0000.0001) // =======================================================
(PID.TID 0000.0001) // Model configuration
(PID.TID 0000.0001) // =======================================================
(PID.TID 0000.0001) //
(PID.TID 0000.0001) // "Physical" paramters ( PARM01 in namelist )
(PID.TID 0000.0001) //
(PID.TID 0000.0001) buoyancyRelation = /* Type of relation to get Buoyancy */
(PID.TID 0000.0001)               'OCEANIC'
(PID.TID 0000.0001)     ;
(PID.TID 0000.0001) fluidIsAir   =  /* fluid major constituent is Air */
(PID.TID 0000.0001)                   F
(PID.TID 0000.0001)     ;
(PID.TID 0000.0001) fluidIsWater =  /* fluid major constituent is Water */
(PID.TID 0000.0001)                   T
(PID.TID 0000.0001)     ;
(PID.TID 0000.0001) usingPCoords =  /* use p (or p*) vertical coordinate */
(PID.TID 0000.0001)                   F
(PID.TID 0000.0001)     ;
(PID.TID 0000.0001) usingZCoords =  /* use z (or z*) vertical coordinate */
(PID.TID 0000.0001)                   T
(PID.TID 0000.0001)     ;
(PID.TID 0000.0001) tRef =   /* Reference temperature profile ( oC or K ) */
(PID.TID 0000.0001)                 2.650000000000000E+01,      /* K =  1 */
(PID.TID 0000.0001)                 2.610000000000000E+01,      /* K =  2 */
(PID.TID 0000.0001)                 2.600000000000000E+01,      /* K =  3 */
(PID.TID 0000.0001)                 2.550000000000000E+01,      /* K =  4 */
(PID.TID 0000.0001)                 2.540000000000000E+01,      /* K =  5 */
(PID.TID 0000.0001)                 2.490000000000000E+01,      /* K =  6 */
(PID.TID 0000.0001)                 2.450000000000000E+01,      /* K =  7 */
(PID.TID 0000.0001)                 2.400000000000000E+01,      /* K =  8 */
(PID.TID 0000.0001)                 2.370000000000000E+01,      /* K =  9 */
(PID.TID 0000.0001)                 2.330000000000000E+01,      /* K = 10 */
(PID.TID 0000.0001)                 2.310000000000000E+01,      /* K = 11 */
(PID.TID 0000.0001)                 2.280000000000000E+01,      /* K = 12 */
(PID.TID 0000.0001)                 2.250000000000000E+01,      /* K = 13 */
(PID.TID 0000.0001)                 2.210000000000000E+01,      /* K = 14 */
(PID.TID 0000.0001)                 2.160000000000000E+01,      /* K = 15 */
(PID.TID 0000.0001)                 2.060000000000000E+01,      /* K = 16 */
(PID.TID 0000.0001)                 1.950000000000000E+01,      /* K = 17 */
(PID.TID 0000.0001)                 1.840000000000000E+01,      /* K = 18 */
(PID.TID 0000.0001)                 1.730000000000000E+01,      /* K = 19 */
(PID.TID 0000.0001)                 1.660000000000000E+01,      /* K = 20 */
(PID.TID 0000.0001)                 1.550000000000000E+01,      /* K = 21 */
(PID.TID 0000.0001)                 1.460000000000000E+01,      /* K = 22 */
(PID.TID 0000.0001)                 1.380000000000000E+01,      /* K = 23 */
(PID.TID 0000.0001)                 1.310000000000000E+01,      /* K = 24 */
(PID.TID 0000.0001)                 1.160000000000000E+01,      /* K = 25 */
(PID.TID 0000.0001)                 1.010000000000000E+01,      /* K = 26 */
(PID.TID 0000.0001)                 7.700000000000000E+00,      /* K = 27 */
(PID.TID 0000.0001)                 5.300000000000000E+00,      /* K = 28 */
(PID.TID 0000.0001)                 4.100000000000000E+00,      /* K = 29 */
(PID.TID 0000.0001)     2 @  3.700000000000000E+00,             /* K = 30: 31 */
(PID.TID 0000.0001)                 3.400000000000000E+00,      /* K = 32 */
(PID.TID 0000.0001)                 3.000000000000000E+00,      /* K = 33 */
(PID.TID 0000.0001)                 2.800000000000000E+00,      /* K = 34 */
(PID.TID 0000.0001)                 2.600000000000000E+00       /* K = 35 */
(PID.TID 0000.0001)     ;
(PID.TID 0000.0001) sRef =   /* Reference salinity profile ( psu ) */
(PID.TID 0000.0001)    35 @  3.500000000000000E+01              /* K =  1: 35 */
(PID.TID 0000.0001)     ;
(PID.TID 0000.0001) viscAh  =   /* Lateral eddy viscosity ( m^2/s ) */
(PID.TID 0000.0001)                 0.000000000000000E+00
(PID.TID 0000.0001)     ;
(PID.TID 0000.0001) viscAhMax = /* Maximum lateral eddy viscosity ( m^2/s ) */
(PID.TID 0000.0001)                 1.000000000000000E+21
(PID.TID 0000.0001)     ;
(PID.TID 0000.0001) viscAhGrid = /* Grid dependent lateral eddy viscosity ( non-dim. ) */
(PID.TID 0000.0001)                 0.000000000000000E+00
(PID.TID 0000.0001)     ;
(PID.TID 0000.0001) useFullLeith = /* Use Full Form of Leith Viscosity on/off flag*/
(PID.TID 0000.0001)                   F
(PID.TID 0000.0001)     ;
(PID.TID 0000.0001) useStrainTensionVisc= /* Use StrainTension Form of Viscous Operator flag*/
(PID.TID 0000.0001)                   F
(PID.TID 0000.0001)     ;
(PID.TID 0000.0001) useAreaViscLength = /* Use area for visc length instead of geom. mean*/
(PID.TID 0000.0001)                   F
(PID.TID 0000.0001)     ;
(PID.TID 0000.0001) viscC2leith = /* Leith harmonic visc. factor (on grad(vort),non-dim.) */
(PID.TID 0000.0001)                 0.000000000000000E+00
(PID.TID 0000.0001)     ;
(PID.TID 0000.0001) viscC2leithD = /* Leith harmonic viscosity factor (on grad(div),non-dim.)*/
(PID.TID 0000.0001)                 0.000000000000000E+00
(PID.TID 0000.0001)     ;
(PID.TID 0000.0001) viscC2smag = /* Smagorinsky harmonic viscosity factor (non-dim.) */
(PID.TID 0000.0001)                 0.000000000000000E+00
(PID.TID 0000.0001)     ;
(PID.TID 0000.0001) viscA4  =   /* Lateral biharmonic viscosity ( m^4/s ) */
(PID.TID 0000.0001)                 0.000000000000000E+00
(PID.TID 0000.0001)     ;
(PID.TID 0000.0001) viscA4Max = /* Maximum biharmonic viscosity ( m^2/s ) */
(PID.TID 0000.0001)                 1.000000000000000E+21
(PID.TID 0000.0001)     ;
(PID.TID 0000.0001) viscA4Grid = /* Grid dependent biharmonic viscosity ( non-dim. ) */
(PID.TID 0000.0001)                 0.000000000000000E+00
(PID.TID 0000.0001)     ;
(PID.TID 0000.0001) viscC4leith = /* Leith biharm viscosity factor (on grad(vort), non-dim.)*/
(PID.TID 0000.0001)                 0.000000000000000E+00
(PID.TID 0000.0001)     ;
(PID.TID 0000.0001) viscC4leithD = /* Leith biharm viscosity factor (on grad(div), non-dim.) */
(PID.TID 0000.0001)                 0.000000000000000E+00
(PID.TID 0000.0001)     ;
(PID.TID 0000.0001) viscC4Smag = /* Smagorinsky biharm viscosity factor (non-dim) */
(PID.TID 0000.0001)                 0.000000000000000E+00
(PID.TID 0000.0001)     ;
(PID.TID 0000.0001) no_slip_sides =  /* Viscous BCs: No-slip sides */
(PID.TID 0000.0001)                   F
(PID.TID 0000.0001)     ;
(PID.TID 0000.0001) sideDragFactor = /* side-drag scaling factor (non-dim) */
(PID.TID 0000.0001)                 2.000000000000000E+00
(PID.TID 0000.0001)     ;
(PID.TID 0000.0001) viscArNr = /* vertical profile of vertical viscosity ( m^2/s )*/
(PID.TID 0000.0001)    35 @  0.000000000000000E+00              /* K =  1: 35 */
(PID.TID 0000.0001)     ;
(PID.TID 0000.0001) no_slip_bottom =  /* Viscous BCs: No-slip bottom */
(PID.TID 0000.0001)                   T
(PID.TID 0000.0001)     ;
(PID.TID 0000.0001) bottomDragLinear = /* linear bottom-drag coefficient ( m/s ) */
(PID.TID 0000.0001)                 0.000000000000000E+00
(PID.TID 0000.0001)     ;
(PID.TID 0000.0001) bottomDragQuadratic = /* quadratic bottom-drag coefficient (-) */
(PID.TID 0000.0001)                 0.000000000000000E+00
(PID.TID 0000.0001)     ;
(PID.TID 0000.0001) diffKhT =   /* Laplacian diffusion of heat laterally ( m^2/s ) */
(PID.TID 0000.0001)                 1.000000000000000E+02
(PID.TID 0000.0001)     ;
(PID.TID 0000.0001) diffK4T =   /* Biharmonic diffusion of heat laterally ( m^4/s ) */
(PID.TID 0000.0001)                 0.000000000000000E+00
(PID.TID 0000.0001)     ;
(PID.TID 0000.0001) diffKhS =   /* Laplacian diffusion of salt laterally ( m^2/s ) */
(PID.TID 0000.0001)                 0.000000000000000E+00
(PID.TID 0000.0001)     ;
(PID.TID 0000.0001) diffK4S =   /* Biharmonic diffusion of salt laterally ( m^4/s ) */
(PID.TID 0000.0001)                 0.000000000000000E+00
(PID.TID 0000.0001)     ;
(PID.TID 0000.0001) diffKrNrT = /* vertical profile of vertical diffusion of Temp ( m^2/s )*/
(PID.TID 0000.0001)    35 @  1.000000000000000E-04              /* K =  1: 35 */
(PID.TID 0000.0001)     ;
(PID.TID 0000.0001) diffKrNrS = /* vertical profile of vertical diffusion of Salt ( m^2/s )*/
(PID.TID 0000.0001)    35 @  0.000000000000000E+00              /* K =  1: 35 */
(PID.TID 0000.0001)     ;
(PID.TID 0000.0001) diffKrBL79surf = /* Surface diffusion for Bryan and Lewis 79 ( m^2/s ) */
(PID.TID 0000.0001)                 0.000000000000000E+00
(PID.TID 0000.0001)     ;
(PID.TID 0000.0001) diffKrBL79deep = /* Deep diffusion for Bryan and Lewis 1979 ( m^2/s ) */
(PID.TID 0000.0001)                 0.000000000000000E+00
(PID.TID 0000.0001)     ;
(PID.TID 0000.0001) diffKrBL79scl = /* Depth scale for Bryan and Lewis 1979 ( m ) */
(PID.TID 0000.0001)                 2.000000000000000E+02
(PID.TID 0000.0001)     ;
(PID.TID 0000.0001) diffKrBL79Ho = /* Turning depth for Bryan and Lewis 1979 ( m ) */
(PID.TID 0000.0001)                -2.000000000000000E+03
(PID.TID 0000.0001)     ;
(PID.TID 0000.0001) ivdc_kappa = /* Implicit Vertical Diffusivity for Convection ( m^2/s) */
(PID.TID 0000.0001)                 0.000000000000000E+00
(PID.TID 0000.0001)     ;
(PID.TID 0000.0001) hMixCriteria=  /* Criteria for mixed-layer diagnostic */
(PID.TID 0000.0001)                -8.000000000000000E-01
(PID.TID 0000.0001)     ;
(PID.TID 0000.0001) dRhoSmall =  /* Parameter for mixed-layer diagnostic */
(PID.TID 0000.0001)                 1.000000000000000E-06
(PID.TID 0000.0001)     ;
(PID.TID 0000.0001) hMixSmooth=  /* Smoothing parameter for mixed-layer diagnostic */
(PID.TID 0000.0001)                 0.000000000000000E+00
(PID.TID 0000.0001)     ;
(PID.TID 0000.0001) eosType =  /* Type of Equation of State */
(PID.TID 0000.0001)               'JMD95Z'
(PID.TID 0000.0001)     ;
(PID.TID 0000.0001) celsius2K = /* 0 degree Celsius converted to Kelvin ( K ) */
(PID.TID 0000.0001)                 2.731500000000000E+02
(PID.TID 0000.0001)     ;
(PID.TID 0000.0001) rhoConst  = /* Reference density (Boussinesq)  ( kg/m^3 ) */
(PID.TID 0000.0001)                 9.998000000000000E+02
(PID.TID 0000.0001)     ;
(PID.TID 0000.0001) rhoFacC = /* normalized Reference density @ cell-Center (-) */
(PID.TID 0000.0001)    35 @  1.000000000000000E+00              /* K =  1: 35 */
(PID.TID 0000.0001)     ;
(PID.TID 0000.0001) rhoFacF = /* normalized Reference density @ W-Interface (-) */
(PID.TID 0000.0001)    36 @  1.000000000000000E+00              /* K =  1: 36 */
(PID.TID 0000.0001)     ;
(PID.TID 0000.0001) rhoConstFresh = /* Fresh-water reference density ( kg/m^3 ) */
(PID.TID 0000.0001)                 9.998000000000000E+02
(PID.TID 0000.0001)     ;
(PID.TID 0000.0001) gravity =   /* Gravitational acceleration ( m/s^2 ) */
(PID.TID 0000.0001)                 9.810000000000000E+00
(PID.TID 0000.0001)     ;
(PID.TID 0000.0001) gBaro =   /* Barotropic gravity ( m/s^2 ) */
(PID.TID 0000.0001)                 9.810000000000000E+00
(PID.TID 0000.0001)     ;
(PID.TID 0000.0001) rotationPeriod =   /* Rotation Period ( s ) */
(PID.TID 0000.0001)                 8.616400000000000E+04
(PID.TID 0000.0001)     ;
(PID.TID 0000.0001) omega =   /* Angular velocity ( rad/s ) */
(PID.TID 0000.0001)                 7.292123516990375E-05
(PID.TID 0000.0001)     ;
(PID.TID 0000.0001) f0 =   /* Reference coriolis parameter ( 1/s ) */
(PID.TID 0000.0001)                 1.000000000000000E-04
(PID.TID 0000.0001)     ;
(PID.TID 0000.0001) beta =   /* Beta ( 1/(m.s) ) */
(PID.TID 0000.0001)                 9.999999999999999E-12
(PID.TID 0000.0001)     ;
(PID.TID 0000.0001) fPrime =   /* Second coriolis parameter ( 1/s ) */
(PID.TID 0000.0001)                 0.000000000000000E+00
(PID.TID 0000.0001)     ;
(PID.TID 0000.0001) rigidLid =   /* Rigid lid on/off flag */
(PID.TID 0000.0001)                   T
(PID.TID 0000.0001)     ;
(PID.TID 0000.0001) implicitFreeSurface =   /* Implicit free surface on/off flag */
(PID.TID 0000.0001)                   F
(PID.TID 0000.0001)     ;
(PID.TID 0000.0001) freeSurfFac =   /* Implicit free surface factor */
(PID.TID 0000.0001)                 0.000000000000000E+00
(PID.TID 0000.0001)     ;
(PID.TID 0000.0001) implicSurfPress =  /* Surface Pressure implicit factor (0-1)*/
(PID.TID 0000.0001)                 1.000000000000000E+00
(PID.TID 0000.0001)     ;
(PID.TID 0000.0001) implicDiv2Dflow =  /* Barot. Flow Div. implicit factor (0-1)*/
(PID.TID 0000.0001)                 1.000000000000000E+00
[...]
(PID.TID 0000.0001) %MON trcstat_ptracer47_min        =   2.9701615603901E-14
(PID.TID 0000.0001) %MON trcstat_ptracer47_mean       =   3.2643486207880E-14
(PID.TID 0000.0001) %MON trcstat_ptracer47_sd         =   1.9250700121112E-15
(PID.TID 0000.0001) %MON trcstat_ptracer47_del2       =   0.0000000000000E+00
(PID.TID 0000.0001) %MON trcstat_ptracer48_max        =   3.4113333531076E-14
(PID.TID 0000.0001) %MON trcstat_ptracer48_min        =   2.9701617062841E-14
(PID.TID 0000.0001) %MON trcstat_ptracer48_mean       =   3.2040953454821E-14
(PID.TID 0000.0001) %MON trcstat_ptracer48_sd         =   1.5326406117735E-15
(PID.TID 0000.0001) %MON trcstat_ptracer48_del2       =   0.0000000000000E+00
(PID.TID 0000.0001) %MON trcstat_ptracer49_max        =   3.3190275561335E-14
(PID.TID 0000.0001) %MON trcstat_ptracer49_min        =   2.9701618239626E-14
(PID.TID 0000.0001) %MON trcstat_ptracer49_mean       =   3.1547291553818E-14
(PID.TID 0000.0001) %MON trcstat_ptracer49_sd         =   1.2103242512894E-15
(PID.TID 0000.0001) %MON trcstat_ptracer49_del2       =   0.0000000000000E+00
(PID.TID 0000.0001) %MON trcstat_ptracer50_max        =   3.2439514073269E-14
(PID.TID 0000.0001) %MON trcstat_ptracer50_min        =   2.9701618575965E-14
(PID.TID 0000.0001) %MON trcstat_ptracer50_mean       =   3.1145912381929E-14
(PID.TID 0000.0001) %MON trcstat_ptracer50_sd         =   9.4747229378839E-16
(PID.TID 0000.0001) %MON trcstat_ptracer50_del2       =   0.0000000000000E+00
(PID.TID 0000.0001) %MON trcstat_ptracer51_max        =   3.1832309285993E-14
(PID.TID 0000.0001) %MON trcstat_ptracer51_min        =   2.9701617724334E-14
(PID.TID 0000.0001) %MON trcstat_ptracer51_mean       =   3.0822223578705E-14
(PID.TID 0000.0001) %MON trcstat_ptracer51_sd         =   7.3468194732665E-16
(PID.TID 0000.0001) %MON trcstat_ptracer51_del2       =   0.0000000000000E+00
(PID.TID 0000.0001) %MON trcstat_ptracer52_max        =   3.1344921436300E-14
(PID.TID 0000.0001) %MON trcstat_ptracer52_min        =   2.9701615527613E-14
(PID.TID 0000.0001) %MON trcstat_ptracer52_mean       =   3.0563466404231E-14
(PID.TID 0000.0001) %MON trcstat_ptracer52_sd         =   5.6372239164853E-16
(PID.TID 0000.0001) %MON trcstat_ptracer52_del2       =   0.0000000000000E+00
(PID.TID 0000.0001) %MON trcstat_ptracer53_max        =   2.9894866007248E-14
(PID.TID 0000.0001) %MON trcstat_ptracer53_min        =   2.9847657856187E-14
(PID.TID 0000.0001) %MON trcstat_ptracer53_mean       =   2.9888313606160E-14
(PID.TID 0000.0001) %MON trcstat_ptracer53_sd         =   1.2922196864233E-17
(PID.TID 0000.0001) %MON trcstat_ptracer53_del2       =   0.0000000000000E+00
(PID.TID 0000.0001) %MON trcstat_ptracer54_max        =   2.4265329059953E-09
(PID.TID 0000.0001) %MON trcstat_ptracer54_min        =   9.9004567825650E-10
(PID.TID 0000.0001) %MON trcstat_ptracer54_mean       =   1.0378697166998E-09
(PID.TID 0000.0001) %MON trcstat_ptracer54_sd         =   2.5362821118827E-10
(PID.TID 0000.0001) %MON trcstat_ptracer54_del2       =   0.0000000000000E+00
(PID.TID 0000.0001) %MON trcstat_ptracer55_max        =   2.4406276697228E-09
(PID.TID 0000.0001) %MON trcstat_ptracer55_min        =   9.9004567825650E-10
(PID.TID 0000.0001) %MON trcstat_ptracer55_mean       =   1.0371269721720E-09
(PID.TID 0000.0001) %MON trcstat_ptracer55_sd         =   2.4980363548673E-10
(PID.TID 0000.0001) %MON trcstat_ptracer55_del2       =   0.0000000000000E+00
(PID.TID 0000.0001) %MON trcstat_ptracer56_max        =   2.2065196681622E-09
(PID.TID 0000.0001) %MON trcstat_ptracer56_min        =   9.9004567825650E-10
(PID.TID 0000.0001) %MON trcstat_ptracer56_mean       =   1.0305791345844E-09
(PID.TID 0000.0001) %MON trcstat_ptracer56_sd         =   2.1494824123642E-10
(PID.TID 0000.0001) %MON trcstat_ptracer56_del2       =   0.0000000000000E+00
(PID.TID 0000.0001) %MON trcstat_ptracer57_max        =   2.1052878984877E-09
(PID.TID 0000.0001) %MON trcstat_ptracer57_min        =   9.9004567825650E-10
(PID.TID 0000.0001) %MON trcstat_ptracer57_mean       =   1.0268710821821E-09
(PID.TID 0000.0001) %MON trcstat_ptracer57_sd         =   1.9529998539587E-10
(PID.TID 0000.0001) %MON trcstat_ptracer57_del2       =   0.0000000000000E+00
(PID.TID 0000.0001) %MON trcstat_ptracer58_max        =   1.8826626677597E-09
(PID.TID 0000.0001) %MON trcstat_ptracer58_min        =   9.9004567825650E-10
(PID.TID 0000.0001) %MON trcstat_ptracer58_mean       =   1.0198060271564E-09
(PID.TID 0000.0001) %MON trcstat_ptracer58_sd         =   1.5779671853536E-10
(PID.TID 0000.0001) %MON trcstat_ptracer58_del2       =   0.0000000000000E+00
(PID.TID 0000.0001) %MON trcstat_ptracer59_max        =   1.6939300184693E-09
(PID.TID 0000.0001) %MON trcstat_ptracer59_min        =   9.9004567825650E-10
(PID.TID 0000.0001) %MON trcstat_ptracer59_mean       =   1.0138317816950E-09
(PID.TID 0000.0001) %MON trcstat_ptracer59_sd         =   1.2608366406356E-10
(PID.TID 0000.0001) %MON trcstat_ptracer59_del2       =   0.0000000000000E+00
(PID.TID 0000.0001) %MON trcstat_ptracer60_max        =   1.5363083509248E-09
(PID.TID 0000.0001) %MON trcstat_ptracer60_min        =   9.9004567825650E-10
(PID.TID 0000.0001) %MON trcstat_ptracer60_mean       =   1.0085332201970E-09
(PID.TID 0000.0001) %MON trcstat_ptracer60_sd         =   9.7974112788874E-11
(PID.TID 0000.0001) %MON trcstat_ptracer60_del2       =   0.0000000000000E+00
(PID.TID 0000.0001) %MON trcstat_ptracer61_max        =   1.4081804770655E-09
(PID.TID 0000.0001) %MON trcstat_ptracer61_min        =   9.9004567825650E-10
(PID.TID 0000.0001) %MON trcstat_ptracer61_mean       =   1.0042129657745E-09
(PID.TID 0000.0001) %MON trcstat_ptracer61_sd         =   7.5049373687143E-11
(PID.TID 0000.0001) %MON trcstat_ptracer61_del2       =   0.0000000000000E+00
(PID.TID 0000.0001) %MON trcstat_ptracer62_max        =   1.3055727710078E-09
(PID.TID 0000.0001) %MON trcstat_ptracer62_min        =   9.9004567825650E-10
(PID.TID 0000.0001) %MON trcstat_ptracer62_mean       =   1.0007464784962E-09
(PID.TID 0000.0001) %MON trcstat_ptracer62_sd         =   5.6647681923668E-11
(PID.TID 0000.0001) %MON trcstat_ptracer62_del2       =   0.0000000000000E+00
(PID.TID 0000.0001) %MON trcstat_ptracer63_max        =   1.2245579645027E-09
(PID.TID 0000.0001) %MON trcstat_ptracer63_min        =   9.9004567825650E-10
(PID.TID 0000.0001) %MON trcstat_ptracer63_mean       =   9.9806266672000E-10
(PID.TID 0000.0001) %MON trcstat_ptracer63_sd         =   4.2388613021676E-11
(PID.TID 0000.0001) %MON trcstat_ptracer63_del2       =   0.0000000000000E+00
(PID.TID 0000.0001) %MON trcstat_ptracer64_max        =   1.1607839918460E-09
(PID.TID 0000.0001) %MON trcstat_ptracer64_min        =   9.9004567825650E-10
(PID.TID 0000.0001) %MON trcstat_ptracer64_mean       =   9.9588532964972E-10
(PID.TID 0000.0001) %MON trcstat_ptracer64_sd         =   3.0809908480076E-11
(PID.TID 0000.0001) %MON trcstat_ptracer64_del2       =   0.0000000000000E+00
(PID.TID 0000.0001) %MON trcstat_ptracer65_max        =   1.1111745218788E-09
(PID.TID 0000.0001) %MON trcstat_ptracer65_min        =   9.9004567825650E-10
(PID.TID 0000.0001) %MON trcstat_ptracer65_mean       =   9.9419087617635E-10
(PID.TID 0000.0001) %MON trcstat_ptracer65_sd         =   2.1781781191716E-11
(PID.TID 0000.0001) %MON trcstat_ptracer65_del2       =   0.0000000000000E+00
(PID.TID 0000.0001) %MON trcstat_ptracer66_max        =   1.0728915919151E-09
(PID.TID 0000.0001) %MON trcstat_ptracer66_min        =   9.9004567825650E-10
(PID.TID 0000.0001) %MON trcstat_ptracer66_mean       =   9.9288287394241E-10
(PID.TID 0000.0001) %MON trcstat_ptracer66_sd         =   1.4790346585973E-11
(PID.TID 0000.0001) %MON trcstat_ptracer66_del2       =   0.0000000000000E+00
(PID.TID 0000.0001) %MON trcstat_ptracer67_max        =   1.0436116247930E-09
(PID.TID 0000.0001) %MON trcstat_ptracer67_min        =   9.9004567825650E-10
(PID.TID 0000.0001) %MON trcstat_ptracer67_mean       =   9.9188226430576E-10
(PID.TID 0000.0001) %MON trcstat_ptracer67_sd         =   9.4142634665899E-12
(PID.TID 0000.0001) %MON trcstat_ptracer67_del2       =   0.0000000000000E+00
(PID.TID 0000.0001) %MON trcstat_ptracer68_max        =   1.0214618322677E-09
(PID.TID 0000.0001) %MON trcstat_ptracer68_min        =   9.9004567825650E-10
(PID.TID 0000.0001) %MON trcstat_ptracer68_mean       =   9.9112526717856E-10
(PID.TID 0000.0001) %MON trcstat_ptracer68_sd         =   5.3177344583983E-12
(PID.TID 0000.0001) %MON trcstat_ptracer68_del2       =   0.0000000000000E+00
(PID.TID 0000.0001) %MON trcstat_ptracer69_max        =   5.8122694840353E-10
(PID.TID 0000.0001) %MON trcstat_ptracer69_min        =   5.7021956259027E-10
(PID.TID 0000.0001) %MON trcstat_ptracer69_mean       =   5.7864364913753E-10
(PID.TID 0000.0001) %MON trcstat_ptracer69_sd         =   2.9608853979277E-12
(PID.TID 0000.0001) %MON trcstat_ptracer69_del2       =   0.0000000000000E+00
(PID.TID 0000.0001) %MON trcstat_ptracer70_max        =   3.9877173219476E-10
(PID.TID 0000.0001) %MON trcstat_ptracer70_min        =   3.4873095601665E-10
(PID.TID 0000.0001) %MON trcstat_ptracer70_mean       =   3.9640042398890E-10
(PID.TID 0000.0001) %MON trcstat_ptracer70_sd         =   2.8670387206188E-12
(PID.TID 0000.0001) %MON trcstat_ptracer70_del2       =   0.0000000000000E+00
(PID.TID 0000.0001) %MON trcstat_ptracer71_max        =   2.7128849289102E-01
(PID.TID 0000.0001) %MON trcstat_ptracer71_min        =   5.5445411068607E-11
(PID.TID 0000.0001) %MON trcstat_ptracer71_mean       =   3.2909409071139E-02
(PID.TID 0000.0001) %MON trcstat_ptracer71_sd         =   8.3273876171840E-02
(PID.TID 0000.0001) %MON trcstat_ptracer71_del2       =   0.0000000000000E+00
(PID.TID 0000.0001) %MON trcstat_ptracer72_max        =   3.0099844322322E-02
(PID.TID 0000.0001) %MON trcstat_ptracer72_min        =   7.1300850518909E-07
(PID.TID 0000.0001) %MON trcstat_ptracer72_mean       =   1.4828849791657E-02
(PID.TID 0000.0001) %MON trcstat_ptracer72_sd         =   1.1009002873614E-02
(PID.TID 0000.0001) %MON trcstat_ptracer72_del2       =   0.0000000000000E+00
(PID.TID 0000.0001) %MON trcstat_ptracer73_max        =   1.6955531190738E-05
(PID.TID 0000.0001) %MON trcstat_ptracer73_min        =   2.7358224461246E-15
(PID.TID 0000.0001) %MON trcstat_ptracer73_mean       =   2.0568380652284E-06
(PID.TID 0000.0001) %MON trcstat_ptracer73_sd         =   5.2046172563209E-06
(PID.TID 0000.0001) %MON trcstat_ptracer73_del2       =   0.0000000000000E+00
(PID.TID 0000.0001) %MON trcstat_ptracer74_max        =   1.8812403424847E-06
(PID.TID 0000.0001) %MON trcstat_ptracer74_min        =   4.4562705531802E-11
(PID.TID 0000.0001) %MON trcstat_ptracer74_mean       =   9.2680311967128E-07
(PID.TID 0000.0001) %MON trcstat_ptracer74_sd         =   6.8806270480474E-07
(PID.TID 0000.0001) %MON trcstat_ptracer74_del2       =   0.0000000000000E+00
(PID.TID 0000.0001) // =======================================================
(PID.TID 0000.0001) // End MONITOR ptracers field statistics
(PID.TID 0000.0001) // =======================================================
(PID.TID 0000.0001) %CHECKPOINT         4 ckptA
(PID.TID 0000.0001)   Seconds in section "ALL                    [THE_MODEL_MAIN]":
(PID.TID 0000.0001)           User time:   1.3600000000000001
(PID.TID 0000.0001)         System time:  4.00000000000000008E-002
(PID.TID 0000.0001)     Wall clock time:   1.3957309722900391
(PID.TID 0000.0001)          No. starts:           1
(PID.TID 0000.0001)           No. stops:           1
(PID.TID 0000.0001)   Seconds in section "INITIALISE_FIXED       [THE_MODEL_MAIN]":
(PID.TID 0000.0001)           User time:  0.98999999999999999
(PID.TID 0000.0001)         System time:  2.99999999999999989E-002
(PID.TID 0000.0001)     Wall clock time:   1.0184440612792969
(PID.TID 0000.0001)          No. starts:           1
(PID.TID 0000.0001)           No. stops:           1
(PID.TID 0000.0001)   Seconds in section "THE_MAIN_LOOP          [THE_MODEL_MAIN]":
(PID.TID 0000.0001)           User time:  0.37000000000000011
(PID.TID 0000.0001)         System time:  1.00000000000000019E-002
(PID.TID 0000.0001)     Wall clock time:  0.37427806854248047
(PID.TID 0000.0001)          No. starts:           1
(PID.TID 0000.0001)           No. stops:           1
(PID.TID 0000.0001)   Seconds in section "INITIALISE_VARIA    [THE_MAIN_LOOP]":
(PID.TID 0000.0001)           User time:  5.00000000000000444E-002
(PID.TID 0000.0001)         System time:  1.00000000000000019E-002
(PID.TID 0000.0001)     Wall clock time:  5.89051246643066406E-002
(PID.TID 0000.0001)          No. starts:           1
(PID.TID 0000.0001)           No. stops:           1
(PID.TID 0000.0001)   Seconds in section "MAIN LOOP           [THE_MAIN_LOOP]":
(PID.TID 0000.0001)           User time:  0.32000000000000006
(PID.TID 0000.0001)         System time:   0.0000000000000000
(PID.TID 0000.0001)     Wall clock time:  0.31534099578857422
(PID.TID 0000.0001)          No. starts:           1
(PID.TID 0000.0001)           No. stops:           1
(PID.TID 0000.0001)   Seconds in section "FORWARD_STEP        [THE_MAIN_LOOP]":
(PID.TID 0000.0001)           User time:  0.32000000000000006
(PID.TID 0000.0001)         System time:   0.0000000000000000
(PID.TID 0000.0001)     Wall clock time:  0.31528735160827637
(PID.TID 0000.0001)          No. starts:           4
(PID.TID 0000.0001)           No. stops:           4
(PID.TID 0000.0001)   Seconds in section "LOAD_FIELDS_DRIVER  [FORWARD_STEP]":
(PID.TID 0000.0001)           User time:   0.0000000000000000
(PID.TID 0000.0001)         System time:   0.0000000000000000
(PID.TID 0000.0001)     Wall clock time:  6.36816024780273438E-004
(PID.TID 0000.0001)          No. starts:           4
(PID.TID 0000.0001)           No. stops:           4
(PID.TID 0000.0001)   Seconds in section "EXTERNAL_FLDS_LOAD [LOAD_FLDS_DRIVER]":
(PID.TID 0000.0001)           User time:   0.0000000000000000
(PID.TID 0000.0001)         System time:   0.0000000000000000
(PID.TID 0000.0001)     Wall clock time:  3.39031219482421875E-004
(PID.TID 0000.0001)          No. starts:           4
(PID.TID 0000.0001)           No. stops:           4
(PID.TID 0000.0001)   Seconds in section "DO_ATMOSPHERIC_PHYS [FORWARD_STEP]":
(PID.TID 0000.0001)           User time:   0.0000000000000000
(PID.TID 0000.0001)         System time:   0.0000000000000000
(PID.TID 0000.0001)     Wall clock time:  4.29153442382812500E-005
(PID.TID 0000.0001)          No. starts:           4
(PID.TID 0000.0001)           No. stops:           4
(PID.TID 0000.0001)   Seconds in section "DO_OCEANIC_PHYS     [FORWARD_STEP]":
(PID.TID 0000.0001)           User time:   0.0000000000000000
(PID.TID 0000.0001)         System time:   0.0000000000000000
(PID.TID 0000.0001)     Wall clock time:  6.16288185119628906E-003
(PID.TID 0000.0001)          No. starts:           4
(PID.TID 0000.0001)           No. stops:           4
(PID.TID 0000.0001)   Seconds in section "KPP_CALC [DO_OCEANIC_PHYS]":
(PID.TID 0000.0001)           User time:   0.0000000000000000
(PID.TID 0000.0001)         System time:   0.0000000000000000
(PID.TID 0000.0001)     Wall clock time:  5.32388687133789063E-003
(PID.TID 0000.0001)          No. starts:           4
(PID.TID 0000.0001)           No. stops:           4
(PID.TID 0000.0001)   Seconds in section "GCHEM_CALC_TENDENCY [FORWARD_STEP]":
(PID.TID 0000.0001)           User time:   0.0000000000000000
(PID.TID 0000.0001)         System time:   0.0000000000000000
(PID.TID 0000.0001)     Wall clock time:  3.98159027099609375E-005
(PID.TID 0000.0001)          No. starts:           4
(PID.TID 0000.0001)           No. stops:           4
(PID.TID 0000.0001)   Seconds in section "THERMODYNAMICS      [FORWARD_STEP]":
(PID.TID 0000.0001)           User time:  0.19999999999999996
(PID.TID 0000.0001)         System time:   0.0000000000000000
(PID.TID 0000.0001)     Wall clock time:  0.19948768615722656
(PID.TID 0000.0001)          No. starts:           4
(PID.TID 0000.0001)           No. stops:           4
(PID.TID 0000.0001)   Seconds in section "TRC_CORRECTION_STEP [FORWARD_STEP]":
(PID.TID 0000.0001)           User time:   0.0000000000000000
(PID.TID 0000.0001)         System time:   0.0000000000000000
(PID.TID 0000.0001)     Wall clock time:  3.25989723205566406E-003
(PID.TID 0000.0001)          No. starts:           4
(PID.TID 0000.0001)           No. stops:           4
(PID.TID 0000.0001)   Seconds in section "GCHEM_FORCING_SEP  [FORWARD_STEP]":
(PID.TID 0000.0001)           User time:  3.00000000000000266E-002
(PID.TID 0000.0001)         System time:   0.0000000000000000
(PID.TID 0000.0001)     Wall clock time:  2.59258747100830078E-002
(PID.TID 0000.0001)          No. starts:           4
(PID.TID 0000.0001)           No. stops:           4
(PID.TID 0000.0001)   Seconds in section "BLOCKING_EXCHANGES  [FORWARD_STEP]":
(PID.TID 0000.0001)           User time:  1.00000000000000089E-002
(PID.TID 0000.0001)         System time:   0.0000000000000000
(PID.TID 0000.0001)     Wall clock time:  1.21781826019287109E-002
(PID.TID 0000.0001)          No. starts:           4
(PID.TID 0000.0001)           No. stops:           4
(PID.TID 0000.0001)   Seconds in section "DO_STATEVARS_TAVE   [FORWARD_STEP]":
(PID.TID 0000.0001)           User time:   0.0000000000000000
(PID.TID 0000.0001)         System time:   0.0000000000000000
(PID.TID 0000.0001)     Wall clock time:  9.21726226806640625E-004
(PID.TID 0000.0001)          No. starts:           4
(PID.TID 0000.0001)           No. stops:           4
(PID.TID 0000.0001)   Seconds in section "MONITOR             [FORWARD_STEP]":
(PID.TID 0000.0001)           User time:   0.0000000000000000
(PID.TID 0000.0001)         System time:   0.0000000000000000
(PID.TID 0000.0001)     Wall clock time:  3.48448753356933594E-003
(PID.TID 0000.0001)          No. starts:           4
(PID.TID 0000.0001)           No. stops:           4
(PID.TID 0000.0001)   Seconds in section "DO_THE_MODEL_IO     [FORWARD_STEP]":
(PID.TID 0000.0001)           User time:  7.00000000000000622E-002
(PID.TID 0000.0001)         System time:   0.0000000000000000
(PID.TID 0000.0001)     Wall clock time:  5.93976974487304688E-002
(PID.TID 0000.0001)          No. starts:           4
(PID.TID 0000.0001)           No. stops:           4
(PID.TID 0000.0001)   Seconds in section "DO_WRITE_PICKUP     [FORWARD_STEP]":
(PID.TID 0000.0001)           User time:  1.00000000000000089E-002
(PID.TID 0000.0001)         System time:   0.0000000000000000
(PID.TID 0000.0001)     Wall clock time:  3.17525863647460938E-003
(PID.TID 0000.0001)          No. starts:           4
(PID.TID 0000.0001)           No. stops:           4
(PID.TID 0000.0001) // ======================================================
(PID.TID 0000.0001) // Tile <-> Tile communication statistics
(PID.TID 0000.0001) // ======================================================
(PID.TID 0000.0001) // o Tile number: 000001
(PID.TID 0000.0001) //         No. X exchanges =              0
(PID.TID 0000.0001) //            Max. X spins =              0
(PID.TID 0000.0001) //            Min. X spins =     1000000000
(PID.TID 0000.0001) //          Total. X spins =              0
(PID.TID 0000.0001) //            Avg. X spins =       0.00E+00
(PID.TID 0000.0001) //         No. Y exchanges =              0
(PID.TID 0000.0001) //            Max. Y spins =              0
(PID.TID 0000.0001) //            Min. Y spins =     1000000000
(PID.TID 0000.0001) //          Total. Y spins =              0
(PID.TID 0000.0001) //            Avg. Y spins =       0.00E+00
(PID.TID 0000.0001) // o Thread number: 000001
(PID.TID 0000.0001) //            No. barriers =          16666
(PID.TID 0000.0001) //      Max. barrier spins =              1
(PID.TID 0000.0001) //      Min. barrier spins =              1
(PID.TID 0000.0001) //     Total barrier spins =          16666
(PID.TID 0000.0001) //      Avg. barrier spins =       1.00E+00
PROGRAM MAIN: Execution ended Normally
