(PID.TID 0000.0001) 
(PID.TID 0000.0001) // ======================================================
(PID.TID 0000.0001) //                      MITgcm UV
(PID.TID 0000.0001) //                      =========
(PID.TID 0000.0001) // ======================================================
(PID.TID 0000.0001) // execution environment starting up...
(PID.TID 0000.0001) 
(PID.TID 0000.0001) // Build user:        jahn
(PID.TID 0000.0001) // Build host:        saramago.mit.edu
(PID.TID 0000.0001) // Build date:        Mon Apr  4 17:16:15 EDT 2011
(PID.TID 0000.0001) 
(PID.TID 0000.0001) // =======================================================
(PID.TID 0000.0001) // Execution Environment parameter file "eedata"
(PID.TID 0000.0001) // =======================================================
(PID.TID 0000.0001) ># Example "eedata" file
(PID.TID 0000.0001) ># Lines beginning "#" are comments
(PID.TID 0000.0001) ># nTx - No. threads per process in X
(PID.TID 0000.0001) ># nTy - No. threads per process in Y
(PID.TID 0000.0001) > &EEPARMS
(PID.TID 0000.0001) > nTx=1,nTy=1
(PID.TID 0000.0001) > /
(PID.TID 0000.0001) ># Note: Some systems use & as the
(PID.TID 0000.0001) ># namelist terminator. Other systems
(PID.TID 0000.0001) ># use a / character (as shown here).
(PID.TID 0000.0001) 
(PID.TID 0000.0001) // =======================================================
(PID.TID 0000.0001) // Computational Grid Specification ( see files "SIZE.h" )
(PID.TID 0000.0001) //                                  ( and "eedata"       )
(PID.TID 0000.0001) // =======================================================
(PID.TID 0000.0001)      nPx =    1 ; /* No. processes in X */
(PID.TID 0000.0001)      nPy =    1 ; /* No. processes in Y */
(PID.TID 0000.0001)      nSx =    1 ; /* No. tiles in X per process */
(PID.TID 0000.0001)      nSy =    1 ; /* No. tiles in Y per process */
(PID.TID 0000.0001)      sNx =    1 ; /* Tile size in X */
(PID.TID 0000.0001)      sNy =    1 ; /* Tile size in Y */
(PID.TID 0000.0001)      OLx =    2 ; /* Tile overlap distance in X */
(PID.TID 0000.0001)      OLy =    2 ; /* Tile overlap distance in Y */
(PID.TID 0000.0001)      nTx =    1 ; /* No. threads in X per process */
(PID.TID 0000.0001)      nTy =    1 ; /* No. threads in Y per process */
(PID.TID 0000.0001)       Nr =   35 ; /* No. levels in the vertical   */
(PID.TID 0000.0001)       Nx =    1 ; /* Total domain size in X ( = nPx*nSx*sNx ) */
(PID.TID 0000.0001)       Ny =    1 ; /* Total domain size in Y ( = nPy*nSy*sNy ) */
(PID.TID 0000.0001)   nTiles =    1 ; /* Total no. tiles per process ( = nSx*nSy ) */
(PID.TID 0000.0001)   nProcs =    1 ; /* Total no. processes ( = nPx*nPy ) */
(PID.TID 0000.0001) nThreads =    1 ; /* Total no. threads per process ( = nTx*nTy ) */
(PID.TID 0000.0001) usingMPI =    F ; /* Flag used to control whether MPI is in use */
(PID.TID 0000.0001)                   /*  note: To execute a program with MPI calls */
(PID.TID 0000.0001)                   /*  it must be launched appropriately e.g     */
(PID.TID 0000.0001)                   /*  "mpirun -np 64 ......"                    */
(PID.TID 0000.0001) useCoupler=    F ;/* Flag used to control communications with   */
(PID.TID 0000.0001)                   /*  other model components, through a coupler */
(PID.TID 0000.0001) printMapIncludesZeros=    F ; /* print zeros in Std.Output maps */
(PID.TID 0000.0001) maxLengthPrt1D=   65 /* maxLength of 1D array printed to StdOut */
(PID.TID 0000.0001) 
(PID.TID 0000.0001) // ======================================================
(PID.TID 0000.0001) // Mapping of tiles to threads
(PID.TID 0000.0001) // ======================================================
(PID.TID 0000.0001) // -o- Thread   1, tiles (   1:   1,   1:   1)
(PID.TID 0000.0001) 
(PID.TID 0000.0001) // ======================================================
(PID.TID 0000.0001) // Tile <-> Tile connectvity table
(PID.TID 0000.0001) // ======================================================
(PID.TID 0000.0001) // Tile number: 000001 (process no. = 000001)
(PID.TID 0000.0001) //        WEST: Tile = 000001, Process = 000001, Comm = put
(PID.TID 0000.0001) //                bi = 000001, bj = 000001
(PID.TID 0000.0001) //        EAST: Tile = 000001, Process = 000001, Comm = put
(PID.TID 0000.0001) //                bi = 000001, bj = 000001
(PID.TID 0000.0001) //       SOUTH: Tile = 000001, Process = 000001, Comm = put
(PID.TID 0000.0001) //                bi = 000001, bj = 000001
(PID.TID 0000.0001) //       NORTH: Tile = 000001, Process = 000001, Comm = put
(PID.TID 0000.0001) //                bi = 000001, bj = 000001
(PID.TID 0000.0001) 
(PID.TID 0000.0001)  INI_PARMS: opening model parameter file "data"
(PID.TID 0000.0001)  OPEN_COPY_DATA_FILE: opening file data
(PID.TID 0000.0001) // =======================================================
(PID.TID 0000.0001) // Parameter file "data"
(PID.TID 0000.0001) // =======================================================
(PID.TID 0000.0001) >#
(PID.TID 0000.0001) ># ******************************
(PID.TID 0000.0001) ># Model parameters
(PID.TID 0000.0001) ># Continuous equation parameters
(PID.TID 0000.0001) ># ******************************
(PID.TID 0000.0001) >&PARM01
(PID.TID 0000.0001) >tRef= 26.5, 26.1, 26., 25.5, 25.4, 24.9, 24.5, 24.0, 23.7,
(PID.TID 0000.0001) >      23.3, 23.1, 22.8, 22.5, 22.1, 21.6, 20.6, 19.5, 18.4,
(PID.TID 0000.0001) >      17.3, 16.6, 15.5, 14.6, 13.8, 13.1, 11.6, 10.1, 7.7,
(PID.TID 0000.0001) >      5.3, 4.1, 3.7, 3.7, 3.4, 3.0, 2.8, 2.6,
(PID.TID 0000.0001) >sRef= 35*35.00,
(PID.TID 0000.0001) >no_slip_sides=.false.,
(PID.TID 0000.0001) >no_slip_bottom=.TRUE.,
(PID.TID 0000.0001) >viscAz=0.e0,
(PID.TID 0000.0001) >viscAh=0.e0,
(PID.TID 0000.0001) >diffKhT=1.E2,
(PID.TID 0000.0001) >diffKzT=1.E-4,
(PID.TID 0000.0001) >diffKhS=0.D0,
(PID.TID 0000.0001) >diffKzS=0.D0,
(PID.TID 0000.0001) >beta=1.E-11,
(PID.TID 0000.0001) >tAlpha=2.E-4,
(PID.TID 0000.0001) >sBeta =7.4E-4,
(PID.TID 0000.0001) >gravity=9.81,
(PID.TID 0000.0001) >gBaro=9.81,
(PID.TID 0000.0001) >rigidLid=.TRUE.,
(PID.TID 0000.0001) >implicitFreeSurface=.false.,
(PID.TID 0000.0001) >eosType='JMD95Z',
(PID.TID 0000.0001) >saltStepping=.FALSE.,
(PID.TID 0000.0001) >tempStepping=.TRUE.,
(PID.TID 0000.0001) >tempAdvection=.TRUE.,
(PID.TID 0000.0001) >momStepping=.FALSE.,
(PID.TID 0000.0001) >implicitDiffusion=.true.,
(PID.TID 0000.0001) >implicitViscosity=.true.,
(PID.TID 0000.0001) >allowFreezing=.false.,
(PID.TID 0000.0001) >useSingleCpuIO=.TRUE.,
(PID.TID 0000.0001) >useCDscheme=.FALSE.,
(PID.TID 0000.0001) >tempAdvScheme = 3,
(PID.TID 0000.0001) >saltAdvScheme = 3,
(PID.TID 0000.0001) >/
(PID.TID 0000.0001) >
(PID.TID 0000.0001) ># **************************
(PID.TID 0000.0001) ># Elliptic solver parameters
(PID.TID 0000.0001) ># **************************
(PID.TID 0000.0001) >&PARM02
(PID.TID 0000.0001) >cg2dMaxIters=300,
(PID.TID 0000.0001) >cg2dTargetResidual=1.E-7,
(PID.TID 0000.0001) >/
(PID.TID 0000.0001) >
(PID.TID 0000.0001) ># ************************
(PID.TID 0000.0001) ># Time stepping parameters
(PID.TID 0000.0001) ># ************************
(PID.TID 0000.0001) >&PARM03
(PID.TID 0000.0001) > nIter0=000000,
(PID.TID 0000.0001) ># nTimeSteps=86400,
(PID.TID 0000.0001) > nTimeSteps=4,
(PID.TID 0000.0001) > deltaTmom= 10800.,
(PID.TID 0000.0001) > deltaTtracer= 10800.,
(PID.TID 0000.0001) > deltaTClock = 10800.,
(PID.TID 0000.0001) >#benw set to 0. to switch off cAdj (?)
(PID.TID 0000.0001) > cAdjFreq=0.,
(PID.TID 0000.0001) > abEps=0.1,
(PID.TID 0000.0001) > pChkptFreq  = 31104000.0,
(PID.TID 0000.0001) > chkptFreq   = 31104000.0,
(PID.TID 0000.0001) > monitorFreq = 1.,
(PID.TID 0000.0001) > dumpFreq    = 31104000.0,
(PID.TID 0000.0001) > taveFreq    = 86400.,
(PID.TID 0000.0001) > tauThetaClimRelax=259200.,
(PID.TID 0000.0001) > tauSaltClimRelax=0.,
(PID.TID 0000.0001) > periodicExternalForcing=.TRUE.,
(PID.TID 0000.0001) > externForcingPeriod=2592000.,
(PID.TID 0000.0001) > externForcingCycle=31104000.,
(PID.TID 0000.0001) >/
(PID.TID 0000.0001) >
(PID.TID 0000.0001) ># *******************
(PID.TID 0000.0001) ># Gridding parameters
(PID.TID 0000.0001) ># *******************
(PID.TID 0000.0001) >&PARM04
(PID.TID 0000.0001) >usingCartesianGrid=.FALSE.,
(PID.TID 0000.0001) >usingSphericalPolarGrid=.TRUE.,
(PID.TID 0000.0001) >delX=1*1.E0,
(PID.TID 0000.0001) >delY=1*1.E0,
(PID.TID 0000.0001) >delZ=14*10, 5*15, 4*20, 2*50, 100, 2*150, 200, 300, 3*400, 2*500,
(PID.TID 0000.0001) >xgOrigin=335,
(PID.TID 0000.0001) >ygOrigin=-18.,
(PID.TID 0000.0001) >/
(PID.TID 0000.0001) >
(PID.TID 0000.0001) ># **********
(PID.TID 0000.0001) ># Data Files
(PID.TID 0000.0001) ># **********
(PID.TID 0000.0001) >&PARM05
(PID.TID 0000.0001) >bathyFile=       '../input/input/bathyneg.bin',
(PID.TID 0000.0001) >hydrogThetaFile= '../input/input/loc1_temp_janprof.bin',
(PID.TID 0000.0001) >hydrogSaltFile=  '../input/input/salt_uniform.bin',
(PID.TID 0000.0001) >zonalWindFile=   '../input/input/wind_u_mon.bin',
(PID.TID 0000.0001) >meridWindFile=   '../input/input/wind_v_mon.bin',
(PID.TID 0000.0001) >thetaClimFile=   '../input/input/loc1_temp_monsurf.bin',
(PID.TID 0000.0001) >saltClimFile=    '',
(PID.TID 0000.0001) >surfQFile=       '',
(PID.TID 0000.0001) >EmPmRFile=       '',
(PID.TID 0000.0001) >/
(PID.TID 0000.0001) 
(PID.TID 0000.0001)  INI_PARMS ; starts to read PARM01
(PID.TID 0000.0001)  INI_PARMS ; read PARM01 : OK
(PID.TID 0000.0001)  INI_PARMS ; starts to read PARM02
(PID.TID 0000.0001)  INI_PARMS ; read PARM02 : OK
(PID.TID 0000.0001)  INI_PARMS ; starts to read PARM03
(PID.TID 0000.0001)  INI_PARMS ; read PARM03 : OK
(PID.TID 0000.0001)  INI_PARMS ; starts to read PARM04
(PID.TID 0000.0001)  INI_PARMS ; read PARM04 : OK
(PID.TID 0000.0001)  INI_PARMS ; starts to read PARM05
(PID.TID 0000.0001)  INI_PARMS ; read PARM05 : OK
(PID.TID 0000.0001)  INI_PARMS: finished reading file "data"
(PID.TID 0000.0001)  PACKAGES_BOOT: opening data.pkg
(PID.TID 0000.0001)  OPEN_COPY_DATA_FILE: opening file data.pkg
(PID.TID 0000.0001) // =======================================================
(PID.TID 0000.0001) // Parameter file "data.pkg"
(PID.TID 0000.0001) // =======================================================
(PID.TID 0000.0001) ># Packages
(PID.TID 0000.0001) > &PACKAGES
(PID.TID 0000.0001) > usePTRACERS=.TRUE.
(PID.TID 0000.0001) > useGCHEM=.TRUE.,
(PID.TID 0000.0001) ># useDiagnostics=.TRUE.,
(PID.TID 0000.0001) > useKPP=.TRUE.,
(PID.TID 0000.0001) > useMNC=.TRUE.,
(PID.TID 0000.0001) > /
(PID.TID 0000.0001) 
(PID.TID 0000.0001)  PACKAGES_BOOT: finished reading data.pkg
(PID.TID 0000.0001)  MNC_READPARMS: opening file 'data.mnc'
(PID.TID 0000.0001)  OPEN_COPY_DATA_FILE: opening file data.mnc
(PID.TID 0000.0001) // =======================================================
(PID.TID 0000.0001) // Parameter file "data.mnc"
(PID.TID 0000.0001) // =======================================================
(PID.TID 0000.0001) ># Example "data.mnc" file
(PID.TID 0000.0001) ># Lines beginning "#" are comments
(PID.TID 0000.0001) > &MNC_01
(PID.TID 0000.0001) ># mnc_echo_gvtypes=.FALSE.,
(PID.TID 0000.0001) ># mnc_use_indir=.FALSE.,
(PID.TID 0000.0001) > mnc_use_outdir=.TRUE.,
(PID.TID 0000.0001) > mnc_outdir_str='dar1d_',
(PID.TID 0000.0001) > mnc_outdir_date=.TRUE.,
(PID.TID 0000.0001) > monitor_mnc=.FALSE.,
(PID.TID 0000.0001) > snapshot_mnc=.TRUE.,
(PID.TID 0000.0001) > timeave_mnc=.TRUE.,
(PID.TID 0000.0001) > pickup_read_mnc=.FALSE.,
(PID.TID 0000.0001) > pickup_write_mnc=.FALSE.,
(PID.TID 0000.0001) > /
(PID.TID 0000.0001) ># Note: Some systems use & as the
(PID.TID 0000.0001) ># namelist terminator. Other systems
(PID.TID 0000.0001) ># use a / character.
(PID.TID 0000.0001) 
(PID.TID 0000.0001)  MNC_READPARMS: finished reading data.mnc
(PID.TID 0000.0001)  KPP_INIT: opening data.kpp
(PID.TID 0000.0001)  OPEN_COPY_DATA_FILE: opening file data.kpp
(PID.TID 0000.0001) // =======================================================
(PID.TID 0000.0001) // Parameter file "data.kpp"
(PID.TID 0000.0001) // =======================================================
(PID.TID 0000.0001) ># KPP parameters
(PID.TID 0000.0001) > &KPP_PARM01
(PID.TID 0000.0001) > KPPmixingMaps   = .FALSE.,
(PID.TID 0000.0001) > KPPwriteState   = .TRUE.,
(PID.TID 0000.0001) > kpp_dumpFreq    = 2592000.
(PID.TID 0000.0001) > kpp_tavefreq    = 2592000.
(PID.TID 0000.0001) > Ricr            = 0.3559
(PID.TID 0000.0001) > Riinfty         = 0.6998
(PID.TID 0000.0001) > /
(PID.TID 0000.0001) 
(PID.TID 0000.0001)  KPP_INIT: finished reading data.kpp
(PID.TID 0000.0001)  PTRACERS_READPARMS: opening data.ptracers
(PID.TID 0000.0001)  OPEN_COPY_DATA_FILE: opening file data.ptracers
(PID.TID 0000.0001) // =======================================================
(PID.TID 0000.0001) // Parameter file "data.ptracers"
(PID.TID 0000.0001) // =======================================================
(PID.TID 0000.0001) > &PTRACERS_PARM01
(PID.TID 0000.0001) > PTRACERS_numInUse=75,
(PID.TID 0000.0001) > PTRACERS_Iter0= 0,
(PID.TID 0000.0001) ># tracer 1 - Dissolved Inorganic Carbon
(PID.TID 0000.0001) > PTRACERS_names(1)='DIC',
(PID.TID 0000.0001) > PTRACERS_units(1)='mmol C/m^3',
(PID.TID 0000.0001) > PTRACERS_advScheme(1)=33,
(PID.TID 0000.0001) > PTRACERS_diffKh(1)=0.E3,
(PID.TID 0000.0001) > PTRACERS_diffKr(1)=1.E-5,
(PID.TID 0000.0001) > PTRACERS_useGMRedi(1)=.FALSE.,
(PID.TID 0000.0001) > PTRACERS_useKPP(1)=.TRUE.,
(PID.TID 0000.0001) > PTRACERS_initialFile(1)='../input/input/loc1_DIC_annprof.bin',
(PID.TID 0000.0001) ># tracer 2 - Nitrate
(PID.TID 0000.0001) > PTRACERS_names(2)='NO3',
(PID.TID 0000.0001) > PTRACERS_units(2)='mmol N/m^3',
(PID.TID 0000.0001) > PTRACERS_advScheme(2)=33,
(PID.TID 0000.0001) > PTRACERS_diffKh(2)=0.E3,
(PID.TID 0000.0001) > PTRACERS_diffKr(2)=1.E-5,
(PID.TID 0000.0001) > PTRACERS_useGMRedi(2)=.FALSE.,
(PID.TID 0000.0001) > PTRACERS_useKPP(2)=.TRUE.,
(PID.TID 0000.0001) > PTRACERS_initialFile(2)='../input/input/loc1_nitr_janprof.bin',
(PID.TID 0000.0001) ># tracer 3 - Nitrite
(PID.TID 0000.0001) > PTRACERS_names(3)='NO2',
(PID.TID 0000.0001) > PTRACERS_units(3)='mmol N/m^3',
(PID.TID 0000.0001) > PTRACERS_advScheme(3)=33,
(PID.TID 0000.0001) > PTRACERS_diffKh(3)=0.E3,
(PID.TID 0000.0001) > PTRACERS_diffKr(3)=1.E-5,
(PID.TID 0000.0001) > PTRACERS_useGMRedi(3)=.FALSE.,
(PID.TID 0000.0001) > PTRACERS_useKPP(3)=.TRUE.,
(PID.TID 0000.0001) > PTRACERS_initialFile(3)='../input/input/loc1_NO2_run83_janprof.bin',
(PID.TID 0000.0001) ># tracer 4 - Ammonium
(PID.TID 0000.0001) > PTRACERS_names(4)='NH4',
(PID.TID 0000.0001) > PTRACERS_units(4)='mmol N/m^3',
(PID.TID 0000.0001) > PTRACERS_advScheme(4)=33,
(PID.TID 0000.0001) > PTRACERS_diffKh(4)=0.E3,
(PID.TID 0000.0001) > PTRACERS_diffKr(4)=1.E-5,
(PID.TID 0000.0001) > PTRACERS_useGMRedi(4)=.FALSE.,
(PID.TID 0000.0001) > PTRACERS_useKPP(4)=.TRUE.,
(PID.TID 0000.0001) > PTRACERS_initialFile(4)='../input/input/loc1_NH4_run83_janprof.bin',
(PID.TID 0000.0001) ># tracer 5 - Dissolved Iron
(PID.TID 0000.0001) > PTRACERS_names(5)='FeT',
(PID.TID 0000.0001) > PTRACERS_units(5)='mmol Fe/m^3',
(PID.TID 0000.0001) > PTRACERS_advScheme(5)=33,
(PID.TID 0000.0001) > PTRACERS_diffKh(5)=0.E3,
(PID.TID 0000.0001) > PTRACERS_diffKr(5)=1.E-5,
(PID.TID 0000.0001) > PTRACERS_useGMRedi(5)=.FALSE.,
(PID.TID 0000.0001) > PTRACERS_useKPP(5)=.TRUE.,
(PID.TID 0000.0001) > PTRACERS_initialFile(5)='../input/input/loc1_FeT_run83_janprof.bin',
(PID.TID 0000.0001) ># tracer 6 - Carbon Biomass: Plankton(1)
(PID.TID 0000.0001) > PTRACERS_names(6)='BIO_1_001',
(PID.TID 0000.0001) > PTRACERS_units(6)='mmol C/m^3',
(PID.TID 0000.0001) > PTRACERS_advScheme(6)=33,
(PID.TID 0000.0001) > PTRACERS_diffKh(6)=0.E3,
(PID.TID 0000.0001) > PTRACERS_diffKr(6)=1.E-5,
(PID.TID 0000.0001) > PTRACERS_useGMRedi(6)=.FALSE.,
(PID.TID 0000.0001) > PTRACERS_useKPP(6)=.TRUE.,
(PID.TID 0000.0001) > PTRACERS_initialFile(6)='../input/input/loc1_C_biomass_janprof.bin',
(PID.TID 0000.0001) ># tracer 7 - Carbon Biomass: Plankton(2)
(PID.TID 0000.0001) > PTRACERS_names(7)='BIO_1_002',
(PID.TID 0000.0001) > PTRACERS_units(7)='mmol C/m^3',
(PID.TID 0000.0001) > PTRACERS_advScheme(7)=33,
(PID.TID 0000.0001) > PTRACERS_diffKh(7)=0.E3,
(PID.TID 0000.0001) > PTRACERS_diffKr(7)=1.E-5,
(PID.TID 0000.0001) > PTRACERS_useGMRedi(7)=.FALSE.,
(PID.TID 0000.0001) > PTRACERS_useKPP(7)=.TRUE.,
(PID.TID 0000.0001) > PTRACERS_initialFile(7)='../input/input/loc1_C_biomass_janprof.bin',
(PID.TID 0000.0001) ># tracer 8 - Carbon Biomass: Plankton(3)
(PID.TID 0000.0001) > PTRACERS_names(8)='BIO_1_003',
(PID.TID 0000.0001) > PTRACERS_units(8)='mmol C/m^3',
(PID.TID 0000.0001) > PTRACERS_advScheme(8)=33,
(PID.TID 0000.0001) > PTRACERS_diffKh(8)=0.E3,
(PID.TID 0000.0001) > PTRACERS_diffKr(8)=1.E-5,
(PID.TID 0000.0001) > PTRACERS_useGMRedi(8)=.FALSE.,
(PID.TID 0000.0001) > PTRACERS_useKPP(8)=.TRUE.,
(PID.TID 0000.0001) > PTRACERS_initialFile(8)='../input/input/loc1_C_biomass_janprof.bin',
(PID.TID 0000.0001) ># tracer 9 - Carbon Biomass: Plankton(4)
(PID.TID 0000.0001) > PTRACERS_names(9)='BIO_1_004',
(PID.TID 0000.0001) > PTRACERS_units(9)='mmol C/m^3',
(PID.TID 0000.0001) > PTRACERS_advScheme(9)=33,
(PID.TID 0000.0001) > PTRACERS_diffKh(9)=0.E3,
(PID.TID 0000.0001) > PTRACERS_diffKr(9)=1.E-5,
(PID.TID 0000.0001) > PTRACERS_useGMRedi(9)=.FALSE.,
(PID.TID 0000.0001) > PTRACERS_useKPP(9)=.TRUE.,
(PID.TID 0000.0001) > PTRACERS_initialFile(9)='../input/input/loc1_C_biomass_janprof.bin',
(PID.TID 0000.0001) ># tracer 10 - Carbon Biomass: Plankton(5)
(PID.TID 0000.0001) > PTRACERS_names(10)='BIO_1_005',
(PID.TID 0000.0001) > PTRACERS_units(10)='mmol C/m^3',
(PID.TID 0000.0001) > PTRACERS_advScheme(10)=33,
(PID.TID 0000.0001) > PTRACERS_diffKh(10)=0.E3,
(PID.TID 0000.0001) > PTRACERS_diffKr(10)=1.E-5,
(PID.TID 0000.0001) > PTRACERS_useGMRedi(10)=.FALSE.,
(PID.TID 0000.0001) > PTRACERS_useKPP(10)=.TRUE.,
(PID.TID 0000.0001) > PTRACERS_initialFile(10)='../input/input/loc1_C_biomass_janprof.bin',
(PID.TID 0000.0001) ># tracer 11 - Carbon Biomass: Plankton(6)
(PID.TID 0000.0001) > PTRACERS_names(11)='BIO_1_006',
(PID.TID 0000.0001) > PTRACERS_units(11)='mmol C/m^3',
(PID.TID 0000.0001) > PTRACERS_advScheme(11)=33,
(PID.TID 0000.0001) > PTRACERS_diffKh(11)=0.E3,
(PID.TID 0000.0001) > PTRACERS_diffKr(11)=1.E-5,
(PID.TID 0000.0001) > PTRACERS_useGMRedi(11)=.FALSE.,
(PID.TID 0000.0001) > PTRACERS_useKPP(11)=.TRUE.,
(PID.TID 0000.0001) > PTRACERS_initialFile(11)='../input/input/loc1_C_biomass_janprof.bin',
(PID.TID 0000.0001) ># tracer 12 - Carbon Biomass: Plankton(7)
(PID.TID 0000.0001) > PTRACERS_names(12)='BIO_1_007',
(PID.TID 0000.0001) > PTRACERS_units(12)='mmol C/m^3',
(PID.TID 0000.0001) > PTRACERS_advScheme(12)=33,
(PID.TID 0000.0001) > PTRACERS_diffKh(12)=0.E3,
(PID.TID 0000.0001) > PTRACERS_diffKr(12)=1.E-5,
(PID.TID 0000.0001) > PTRACERS_useGMRedi(12)=.FALSE.,
(PID.TID 0000.0001) > PTRACERS_useKPP(12)=.TRUE.,
(PID.TID 0000.0001) > PTRACERS_initialFile(12)='../input/input/loc1_C_biomass_janprof.bin',
(PID.TID 0000.0001) ># tracer 13 - Carbon Biomass: Plankton(8)
(PID.TID 0000.0001) > PTRACERS_names(13)='BIO_1_008',
(PID.TID 0000.0001) > PTRACERS_units(13)='mmol C/m^3',
(PID.TID 0000.0001) > PTRACERS_advScheme(13)=33,
(PID.TID 0000.0001) > PTRACERS_diffKh(13)=0.E3,
(PID.TID 0000.0001) > PTRACERS_diffKr(13)=1.E-5,
(PID.TID 0000.0001) > PTRACERS_useGMRedi(13)=.FALSE.,
(PID.TID 0000.0001) > PTRACERS_useKPP(13)=.TRUE.,
(PID.TID 0000.0001) > PTRACERS_initialFile(13)='../input/input/loc1_C_biomass_janprof.bin',
(PID.TID 0000.0001) ># tracer 14 - Carbon Biomass: Plankton(9)
(PID.TID 0000.0001) > PTRACERS_names(14)='BIO_1_009',
(PID.TID 0000.0001) > PTRACERS_units(14)='mmol C/m^3',
(PID.TID 0000.0001) > PTRACERS_advScheme(14)=33,
(PID.TID 0000.0001) > PTRACERS_diffKh(14)=0.E3,
(PID.TID 0000.0001) > PTRACERS_diffKr(14)=1.E-5,
(PID.TID 0000.0001) > PTRACERS_useGMRedi(14)=.FALSE.,
(PID.TID 0000.0001) > PTRACERS_useKPP(14)=.TRUE.,
(PID.TID 0000.0001) > PTRACERS_initialFile(14)='../input/input/loc1_C_biomass_janprof.bin',
(PID.TID 0000.0001) ># tracer 15 - Carbon Biomass: Plankton(10)
(PID.TID 0000.0001) > PTRACERS_names(15)='BIO_1_010',
(PID.TID 0000.0001) > PTRACERS_units(15)='mmol C/m^3',
(PID.TID 0000.0001) > PTRACERS_advScheme(15)=33,
(PID.TID 0000.0001) > PTRACERS_diffKh(15)=0.E3,
(PID.TID 0000.0001) > PTRACERS_diffKr(15)=1.E-5,
(PID.TID 0000.0001) > PTRACERS_useGMRedi(15)=.FALSE.,
(PID.TID 0000.0001) > PTRACERS_useKPP(15)=.TRUE.,
(PID.TID 0000.0001) > PTRACERS_initialFile(15)='../input/input/loc1_C_biomass_janprof.bin',
(PID.TID 0000.0001) ># tracer 16 - Carbon Biomass: Plankton(11)
(PID.TID 0000.0001) > PTRACERS_names(16)='BIO_1_011',
(PID.TID 0000.0001) > PTRACERS_units(16)='mmol C/m^3',
(PID.TID 0000.0001) > PTRACERS_advScheme(16)=33,
(PID.TID 0000.0001) > PTRACERS_diffKh(16)=0.E3,
(PID.TID 0000.0001) > PTRACERS_diffKr(16)=1.E-5,
(PID.TID 0000.0001) > PTRACERS_useGMRedi(16)=.FALSE.,
(PID.TID 0000.0001) > PTRACERS_useKPP(16)=.TRUE.,
(PID.TID 0000.0001) > PTRACERS_initialFile(16)='../input/input/loc1_C_biomass_janprof.bin',
(PID.TID 0000.0001) ># tracer 17 - Carbon Biomass: Plankton(12)
(PID.TID 0000.0001) > PTRACERS_names(17)='BIO_1_012',
(PID.TID 0000.0001) > PTRACERS_units(17)='mmol C/m^3',
(PID.TID 0000.0001) > PTRACERS_advScheme(17)=33,
(PID.TID 0000.0001) > PTRACERS_diffKh(17)=0.E3,
(PID.TID 0000.0001) > PTRACERS_diffKr(17)=1.E-5,
(PID.TID 0000.0001) > PTRACERS_useGMRedi(17)=.FALSE.,
(PID.TID 0000.0001) > PTRACERS_useKPP(17)=.TRUE.,
(PID.TID 0000.0001) > PTRACERS_initialFile(17)='../input/input/loc1_C_biomass_janprof.bin',
(PID.TID 0000.0001) ># tracer 18 - Carbon Biomass: Plankton(13)
(PID.TID 0000.0001) > PTRACERS_names(18)='BIO_1_013',
(PID.TID 0000.0001) > PTRACERS_units(18)='mmol C/m^3',
(PID.TID 0000.0001) > PTRACERS_advScheme(18)=33,
(PID.TID 0000.0001) > PTRACERS_diffKh(18)=0.E3,
(PID.TID 0000.0001) > PTRACERS_diffKr(18)=1.E-5,
(PID.TID 0000.0001) > PTRACERS_useGMRedi(18)=.FALSE.,
(PID.TID 0000.0001) > PTRACERS_useKPP(18)=.TRUE.,
(PID.TID 0000.0001) > PTRACERS_initialFile(18)='../input/input/loc1_C_biomass_janprof.bin',
(PID.TID 0000.0001) ># tracer 19 - Carbon Biomass: Plankton(14)
(PID.TID 0000.0001) > PTRACERS_names(19)='BIO_1_014',
(PID.TID 0000.0001) > PTRACERS_units(19)='mmol C/m^3',
(PID.TID 0000.0001) > PTRACERS_advScheme(19)=33,
(PID.TID 0000.0001) > PTRACERS_diffKh(19)=0.E3,
(PID.TID 0000.0001) > PTRACERS_diffKr(19)=1.E-5,
(PID.TID 0000.0001) > PTRACERS_useGMRedi(19)=.FALSE.,
(PID.TID 0000.0001) > PTRACERS_useKPP(19)=.TRUE.,
(PID.TID 0000.0001) > PTRACERS_initialFile(19)='../input/input/loc1_C_biomass_janprof.bin',
(PID.TID 0000.0001) ># tracer 20 - Carbon Biomass: Plankton(15)
(PID.TID 0000.0001) > PTRACERS_names(20)='BIO_1_015',
(PID.TID 0000.0001) > PTRACERS_units(20)='mmol C/m^3',
(PID.TID 0000.0001) > PTRACERS_advScheme(20)=33,
(PID.TID 0000.0001) > PTRACERS_diffKh(20)=0.E3,
(PID.TID 0000.0001) > PTRACERS_diffKr(20)=1.E-5,
(PID.TID 0000.0001) > PTRACERS_useGMRedi(20)=.FALSE.,
(PID.TID 0000.0001) > PTRACERS_useKPP(20)=.TRUE.,
(PID.TID 0000.0001) > PTRACERS_initialFile(20)='../input/input/loc1_C_biomass_janprof.bin',
(PID.TID 0000.0001) ># tracer 21 - Carbon Biomass: Plankton(16)
(PID.TID 0000.0001) > PTRACERS_names(21)='BIO_1_016',
(PID.TID 0000.0001) > PTRACERS_units(21)='mmol C/m^3',
(PID.TID 0000.0001) > PTRACERS_advScheme(21)=33,
(PID.TID 0000.0001) > PTRACERS_diffKh(21)=0.E3,
(PID.TID 0000.0001) > PTRACERS_diffKr(21)=1.E-5,
(PID.TID 0000.0001) > PTRACERS_useGMRedi(21)=.FALSE.,
(PID.TID 0000.0001) > PTRACERS_useKPP(21)=.TRUE.,
(PID.TID 0000.0001) > PTRACERS_initialFile(21)='../input/input/loc1_C_biomass_janprof.bin',
(PID.TID 0000.0001) ># tracer 22 - Nitrogen Biomass: Plankton(1)
(PID.TID 0000.0001) > PTRACERS_names(22)='BIO_2_001',
(PID.TID 0000.0001) > PTRACERS_units(22)='mmol N/m^3',
(PID.TID 0000.0001) > PTRACERS_advScheme(22)=33,
(PID.TID 0000.0001) > PTRACERS_diffKh(22)=0.E3,
(PID.TID 0000.0001) > PTRACERS_diffKr(22)=1.E-5,
(PID.TID 0000.0001) > PTRACERS_useGMRedi(22)=.FALSE.,
(PID.TID 0000.0001) > PTRACERS_useKPP(22)=.TRUE.,
(PID.TID 0000.0001) > PTRACERS_initialFile(22)='../input/input/loc1_N_biomass_janprof.bin',
(PID.TID 0000.0001) ># tracer 23 - Nitrogen Biomass: Plankton(2)
(PID.TID 0000.0001) > PTRACERS_names(23)='BIO_2_002',
(PID.TID 0000.0001) > PTRACERS_units(23)='mmol N/m^3',
(PID.TID 0000.0001) > PTRACERS_advScheme(23)=33,
(PID.TID 0000.0001) > PTRACERS_diffKh(23)=0.E3,
(PID.TID 0000.0001) > PTRACERS_diffKr(23)=1.E-5,
(PID.TID 0000.0001) > PTRACERS_useGMRedi(23)=.FALSE.,
(PID.TID 0000.0001) > PTRACERS_useKPP(23)=.TRUE.,
(PID.TID 0000.0001) > PTRACERS_initialFile(23)='../input/input/loc1_N_biomass_janprof.bin',
(PID.TID 0000.0001) ># tracer 24 - Nitrogen Biomass: Plankton(3)
(PID.TID 0000.0001) > PTRACERS_names(24)='BIO_2_003',
(PID.TID 0000.0001) > PTRACERS_units(24)='mmol N/m^3',
(PID.TID 0000.0001) > PTRACERS_advScheme(24)=33,
(PID.TID 0000.0001) > PTRACERS_diffKh(24)=0.E3,
(PID.TID 0000.0001) > PTRACERS_diffKr(24)=1.E-5,
(PID.TID 0000.0001) > PTRACERS_useGMRedi(24)=.FALSE.,
(PID.TID 0000.0001) > PTRACERS_useKPP(24)=.TRUE.,
(PID.TID 0000.0001) > PTRACERS_initialFile(24)='../input/input/loc1_N_biomass_janprof.bin',
(PID.TID 0000.0001) ># tracer 25 - Nitrogen Biomass: Plankton(4)
(PID.TID 0000.0001) > PTRACERS_names(25)='BIO_2_004',
(PID.TID 0000.0001) > PTRACERS_units(25)='mmol N/m^3',
(PID.TID 0000.0001) > PTRACERS_advScheme(25)=33,
(PID.TID 0000.0001) > PTRACERS_diffKh(25)=0.E3,
(PID.TID 0000.0001) > PTRACERS_diffKr(25)=1.E-5,
(PID.TID 0000.0001) > PTRACERS_useGMRedi(25)=.FALSE.,
(PID.TID 0000.0001) > PTRACERS_useKPP(25)=.TRUE.,
(PID.TID 0000.0001) > PTRACERS_initialFile(25)='../input/input/loc1_N_biomass_janprof.bin',
(PID.TID 0000.0001) ># tracer 26 - Nitrogen Biomass: Plankton(5)
(PID.TID 0000.0001) > PTRACERS_names(26)='BIO_2_005',
(PID.TID 0000.0001) > PTRACERS_units(26)='mmol N/m^3',
(PID.TID 0000.0001) > PTRACERS_advScheme(26)=33,
(PID.TID 0000.0001) > PTRACERS_diffKh(26)=0.E3,
(PID.TID 0000.0001) > PTRACERS_diffKr(26)=1.E-5,
(PID.TID 0000.0001) > PTRACERS_useGMRedi(26)=.FALSE.,
(PID.TID 0000.0001) > PTRACERS_useKPP(26)=.TRUE.,
(PID.TID 0000.0001) > PTRACERS_initialFile(26)='../input/input/loc1_N_biomass_janprof.bin',
(PID.TID 0000.0001) ># tracer 27 - Nitrogen Biomass: Plankton(6)
(PID.TID 0000.0001) > PTRACERS_names(27)='BIO_2_006',
(PID.TID 0000.0001) > PTRACERS_units(27)='mmol N/m^3',
(PID.TID 0000.0001) > PTRACERS_advScheme(27)=33,
(PID.TID 0000.0001) > PTRACERS_diffKh(27)=0.E3,
(PID.TID 0000.0001) > PTRACERS_diffKr(27)=1.E-5,
(PID.TID 0000.0001) > PTRACERS_useGMRedi(27)=.FALSE.,
(PID.TID 0000.0001) > PTRACERS_useKPP(27)=.TRUE.,
(PID.TID 0000.0001) > PTRACERS_initialFile(27)='../input/input/loc1_N_biomass_janprof.bin',
(PID.TID 0000.0001) ># tracer 28 - Nitrogen Biomass: Plankton(7)
(PID.TID 0000.0001) > PTRACERS_names(28)='BIO_2_007',
(PID.TID 0000.0001) > PTRACERS_units(28)='mmol N/m^3',
(PID.TID 0000.0001) > PTRACERS_advScheme(28)=33,
(PID.TID 0000.0001) > PTRACERS_diffKh(28)=0.E3,
(PID.TID 0000.0001) > PTRACERS_diffKr(28)=1.E-5,
(PID.TID 0000.0001) > PTRACERS_useGMRedi(28)=.FALSE.,
(PID.TID 0000.0001) > PTRACERS_useKPP(28)=.TRUE.,
(PID.TID 0000.0001) > PTRACERS_initialFile(28)='../input/input/loc1_N_biomass_janprof.bin',
(PID.TID 0000.0001) ># tracer 29 - Nitrogen Biomass: Plankton(8)
(PID.TID 0000.0001) > PTRACERS_names(29)='BIO_2_008',
(PID.TID 0000.0001) > PTRACERS_units(29)='mmol N/m^3',
(PID.TID 0000.0001) > PTRACERS_advScheme(29)=33,
(PID.TID 0000.0001) > PTRACERS_diffKh(29)=0.E3,
(PID.TID 0000.0001) > PTRACERS_diffKr(29)=1.E-5,
(PID.TID 0000.0001) > PTRACERS_useGMRedi(29)=.FALSE.,
(PID.TID 0000.0001) > PTRACERS_useKPP(29)=.TRUE.,
(PID.TID 0000.0001) > PTRACERS_initialFile(29)='../input/input/loc1_N_biomass_janprof.bin',
(PID.TID 0000.0001) ># tracer 30 - Nitrogen Biomass: Plankton(9)
(PID.TID 0000.0001) > PTRACERS_names(30)='BIO_2_009',
(PID.TID 0000.0001) > PTRACERS_units(30)='mmol N/m^3',
(PID.TID 0000.0001) > PTRACERS_advScheme(30)=33,
(PID.TID 0000.0001) > PTRACERS_diffKh(30)=0.E3,
(PID.TID 0000.0001) > PTRACERS_diffKr(30)=1.E-5,
(PID.TID 0000.0001) > PTRACERS_useGMRedi(30)=.FALSE.,
(PID.TID 0000.0001) > PTRACERS_useKPP(30)=.TRUE.,
(PID.TID 0000.0001) > PTRACERS_initialFile(30)='../input/input/loc1_N_biomass_janprof.bin',
(PID.TID 0000.0001) ># tracer 31 - Nitrogen Biomass: Plankton(10)
(PID.TID 0000.0001) > PTRACERS_names(31)='BIO_2_010',
(PID.TID 0000.0001) > PTRACERS_units(31)='mmol N/m^3',
(PID.TID 0000.0001) > PTRACERS_advScheme(31)=33,
(PID.TID 0000.0001) > PTRACERS_diffKh(31)=0.E3,
(PID.TID 0000.0001) > PTRACERS_diffKr(31)=1.E-5,
(PID.TID 0000.0001) > PTRACERS_useGMRedi(31)=.FALSE.,
(PID.TID 0000.0001) > PTRACERS_useKPP(31)=.TRUE.,
(PID.TID 0000.0001) > PTRACERS_initialFile(31)='../input/input/loc1_N_biomass_janprof.bin',
(PID.TID 0000.0001) ># tracer 32 - Nitrogen Biomass: Plankton(11)
(PID.TID 0000.0001) > PTRACERS_names(32)='BIO_2_011',
(PID.TID 0000.0001) > PTRACERS_units(32)='mmol N/m^3',
(PID.TID 0000.0001) > PTRACERS_advScheme(32)=33,
(PID.TID 0000.0001) > PTRACERS_diffKh(32)=0.E3,
(PID.TID 0000.0001) > PTRACERS_diffKr(32)=1.E-5,
(PID.TID 0000.0001) > PTRACERS_useGMRedi(32)=.FALSE.,
(PID.TID 0000.0001) > PTRACERS_useKPP(32)=.TRUE.,
(PID.TID 0000.0001) > PTRACERS_initialFile(32)='../input/input/loc1_N_biomass_janprof.bin',
(PID.TID 0000.0001) ># tracer 33 - Nitrogen Biomass: Plankton(12)
(PID.TID 0000.0001) > PTRACERS_names(33)='BIO_2_012',
(PID.TID 0000.0001) > PTRACERS_units(33)='mmol N/m^3',
(PID.TID 0000.0001) > PTRACERS_advScheme(33)=33,
(PID.TID 0000.0001) > PTRACERS_diffKh(33)=0.E3,
(PID.TID 0000.0001) > PTRACERS_diffKr(33)=1.E-5,
(PID.TID 0000.0001) > PTRACERS_useGMRedi(33)=.FALSE.,
(PID.TID 0000.0001) > PTRACERS_useKPP(33)=.TRUE.,
(PID.TID 0000.0001) > PTRACERS_initialFile(33)='../input/input/loc1_N_biomass_janprof.bin',
(PID.TID 0000.0001) ># tracer 34 - Nitrogen Biomass: Plankton(13)
(PID.TID 0000.0001) > PTRACERS_names(34)='BIO_2_013',
(PID.TID 0000.0001) > PTRACERS_units(34)='mmol N/m^3',
(PID.TID 0000.0001) > PTRACERS_advScheme(34)=33,
(PID.TID 0000.0001) > PTRACERS_diffKh(34)=0.E3,
(PID.TID 0000.0001) > PTRACERS_diffKr(34)=1.E-5,
(PID.TID 0000.0001) > PTRACERS_useGMRedi(34)=.FALSE.,
(PID.TID 0000.0001) > PTRACERS_useKPP(34)=.TRUE.,
(PID.TID 0000.0001) > PTRACERS_initialFile(34)='../input/input/loc1_N_biomass_janprof.bin',
(PID.TID 0000.0001) ># tracer 35 - Nitrogen Biomass: Plankton(14)
(PID.TID 0000.0001) > PTRACERS_names(35)='BIO_2_014',
(PID.TID 0000.0001) > PTRACERS_units(35)='mmol N/m^3',
(PID.TID 0000.0001) > PTRACERS_advScheme(35)=33,
(PID.TID 0000.0001) > PTRACERS_diffKh(35)=0.E3,
(PID.TID 0000.0001) > PTRACERS_diffKr(35)=1.E-5,
(PID.TID 0000.0001) > PTRACERS_useGMRedi(35)=.FALSE.,
(PID.TID 0000.0001) > PTRACERS_useKPP(35)=.TRUE.,
(PID.TID 0000.0001) > PTRACERS_initialFile(35)='../input/input/loc1_N_biomass_janprof.bin',
(PID.TID 0000.0001) ># tracer 36 - Nitrogen Biomass: Plankton(15)
(PID.TID 0000.0001) > PTRACERS_names(36)='BIO_2_015',
(PID.TID 0000.0001) > PTRACERS_units(36)='mmol N/m^3',
(PID.TID 0000.0001) > PTRACERS_advScheme(36)=33,
(PID.TID 0000.0001) > PTRACERS_diffKh(36)=0.E3,
(PID.TID 0000.0001) > PTRACERS_diffKr(36)=1.E-5,
(PID.TID 0000.0001) > PTRACERS_useGMRedi(36)=.FALSE.,
(PID.TID 0000.0001) > PTRACERS_useKPP(36)=.TRUE.,
(PID.TID 0000.0001) > PTRACERS_initialFile(36)='../input/input/loc1_N_biomass_janprof.bin',
(PID.TID 0000.0001) ># tracer 37 - Nitrogen Biomass: Plankton(16)
(PID.TID 0000.0001) > PTRACERS_names(37)='BIO_2_016',
(PID.TID 0000.0001) > PTRACERS_units(37)='mmol N/m^3',
(PID.TID 0000.0001) > PTRACERS_advScheme(37)=33,
(PID.TID 0000.0001) > PTRACERS_diffKh(37)=0.E3,
(PID.TID 0000.0001) > PTRACERS_diffKr(37)=1.E-5,
(PID.TID 0000.0001) > PTRACERS_useGMRedi(37)=.FALSE.,
(PID.TID 0000.0001) > PTRACERS_useKPP(37)=.TRUE.,
(PID.TID 0000.0001) > PTRACERS_initialFile(37)='../input/input/loc1_N_biomass_janprof.bin',
(PID.TID 0000.0001) ># tracer 38 - Iron Biomass: Plankton(1)
(PID.TID 0000.0001) > PTRACERS_names(38)='BIO_3_001',
(PID.TID 0000.0001) > PTRACERS_units(38)='mmol Fe/m^3',
(PID.TID 0000.0001) > PTRACERS_advScheme(38)=33,
(PID.TID 0000.0001) > PTRACERS_diffKh(38)=0.E3,
(PID.TID 0000.0001) > PTRACERS_diffKr(38)=1.E-5,
(PID.TID 0000.0001) > PTRACERS_useGMRedi(38)=.FALSE.,
(PID.TID 0000.0001) > PTRACERS_useKPP(38)=.TRUE.,
(PID.TID 0000.0001) > PTRACERS_initialFile(38)='../input/input/loc1_Fe_biomass_janprof.bin',
(PID.TID 0000.0001) ># tracer 39 - Iron Biomass: Plankton(2)
(PID.TID 0000.0001) > PTRACERS_names(39)='BIO_3_002',
(PID.TID 0000.0001) > PTRACERS_units(39)='mmol Fe/m^3',
(PID.TID 0000.0001) > PTRACERS_advScheme(39)=33,
(PID.TID 0000.0001) > PTRACERS_diffKh(39)=0.E3,
(PID.TID 0000.0001) > PTRACERS_diffKr(39)=1.E-5,
(PID.TID 0000.0001) > PTRACERS_useGMRedi(39)=.FALSE.,
(PID.TID 0000.0001) > PTRACERS_useKPP(39)=.TRUE.,
(PID.TID 0000.0001) > PTRACERS_initialFile(39)='../input/input/loc1_Fe_biomass_janprof.bin',
(PID.TID 0000.0001) ># tracer 40 - Iron Biomass: Plankton(3)
(PID.TID 0000.0001) > PTRACERS_names(40)='BIO_3_003',
(PID.TID 0000.0001) > PTRACERS_units(40)='mmol Fe/m^3',
(PID.TID 0000.0001) > PTRACERS_advScheme(40)=33,
(PID.TID 0000.0001) > PTRACERS_diffKh(40)=0.E3,
(PID.TID 0000.0001) > PTRACERS_diffKr(40)=1.E-5,
(PID.TID 0000.0001) > PTRACERS_useGMRedi(40)=.FALSE.,
(PID.TID 0000.0001) > PTRACERS_useKPP(40)=.TRUE.,
(PID.TID 0000.0001) > PTRACERS_initialFile(40)='../input/input/loc1_Fe_biomass_janprof.bin',
(PID.TID 0000.0001) ># tracer 41 - Iron Biomass: Plankton(4)
(PID.TID 0000.0001) > PTRACERS_names(41)='BIO_3_004',
(PID.TID 0000.0001) > PTRACERS_units(41)='mmol Fe/m^3',
(PID.TID 0000.0001) > PTRACERS_advScheme(41)=33,
(PID.TID 0000.0001) > PTRACERS_diffKh(41)=0.E3,
(PID.TID 0000.0001) > PTRACERS_diffKr(41)=1.E-5,
(PID.TID 0000.0001) > PTRACERS_useGMRedi(41)=.FALSE.,
(PID.TID 0000.0001) > PTRACERS_useKPP(41)=.TRUE.,
(PID.TID 0000.0001) > PTRACERS_initialFile(41)='../input/input/loc1_Fe_biomass_janprof.bin',
(PID.TID 0000.0001) ># tracer 42 - Iron Biomass: Plankton(5)
(PID.TID 0000.0001) > PTRACERS_names(42)='BIO_3_005',
(PID.TID 0000.0001) > PTRACERS_units(42)='mmol Fe/m^3',
(PID.TID 0000.0001) > PTRACERS_advScheme(42)=33,
(PID.TID 0000.0001) > PTRACERS_diffKh(42)=0.E3,
(PID.TID 0000.0001) > PTRACERS_diffKr(42)=1.E-5,
(PID.TID 0000.0001) > PTRACERS_useGMRedi(42)=.FALSE.,
(PID.TID 0000.0001) > PTRACERS_useKPP(42)=.TRUE.,
(PID.TID 0000.0001) > PTRACERS_initialFile(42)='../input/input/loc1_Fe_biomass_janprof.bin',
(PID.TID 0000.0001) ># tracer 43 - Iron Biomass: Plankton(6)
(PID.TID 0000.0001) > PTRACERS_names(43)='BIO_3_006',
(PID.TID 0000.0001) > PTRACERS_units(43)='mmol Fe/m^3',
(PID.TID 0000.0001) > PTRACERS_advScheme(43)=33,
(PID.TID 0000.0001) > PTRACERS_diffKh(43)=0.E3,
(PID.TID 0000.0001) > PTRACERS_diffKr(43)=1.E-5,
(PID.TID 0000.0001) > PTRACERS_useGMRedi(43)=.FALSE.,
(PID.TID 0000.0001) > PTRACERS_useKPP(43)=.TRUE.,
(PID.TID 0000.0001) > PTRACERS_initialFile(43)='../input/input/loc1_Fe_biomass_janprof.bin',
(PID.TID 0000.0001) ># tracer 44 - Iron Biomass: Plankton(7)
(PID.TID 0000.0001) > PTRACERS_names(44)='BIO_3_007',
(PID.TID 0000.0001) > PTRACERS_units(44)='mmol Fe/m^3',
(PID.TID 0000.0001) > PTRACERS_advScheme(44)=33,
(PID.TID 0000.0001) > PTRACERS_diffKh(44)=0.E3,
(PID.TID 0000.0001) > PTRACERS_diffKr(44)=1.E-5,
(PID.TID 0000.0001) > PTRACERS_useGMRedi(44)=.FALSE.,
(PID.TID 0000.0001) > PTRACERS_useKPP(44)=.TRUE.,
(PID.TID 0000.0001) > PTRACERS_initialFile(44)='../input/input/loc1_Fe_biomass_janprof.bin',
(PID.TID 0000.0001) ># tracer 45 - Iron Biomass: Plankton(8)
(PID.TID 0000.0001) > PTRACERS_names(45)='BIO_3_008',
(PID.TID 0000.0001) > PTRACERS_units(45)='mmol Fe/m^3',
(PID.TID 0000.0001) > PTRACERS_advScheme(45)=33,
(PID.TID 0000.0001) > PTRACERS_diffKh(45)=0.E3,
(PID.TID 0000.0001) > PTRACERS_diffKr(45)=1.E-5,
(PID.TID 0000.0001) > PTRACERS_useGMRedi(45)=.FALSE.,
(PID.TID 0000.0001) > PTRACERS_useKPP(45)=.TRUE.,
(PID.TID 0000.0001) > PTRACERS_initialFile(45)='../input/input/loc1_Fe_biomass_janprof.bin',
(PID.TID 0000.0001) ># tracer 46 - Iron Biomass: Plankton(9)
(PID.TID 0000.0001) > PTRACERS_names(46)='BIO_3_009',
(PID.TID 0000.0001) > PTRACERS_units(46)='mmol Fe/m^3',
(PID.TID 0000.0001) > PTRACERS_advScheme(46)=33,
(PID.TID 0000.0001) > PTRACERS_diffKh(46)=0.E3,
(PID.TID 0000.0001) > PTRACERS_diffKr(46)=1.E-5,
(PID.TID 0000.0001) > PTRACERS_useGMRedi(46)=.FALSE.,
(PID.TID 0000.0001) > PTRACERS_useKPP(46)=.TRUE.,
(PID.TID 0000.0001) > PTRACERS_initialFile(46)='../input/input/loc1_Fe_biomass_janprof.bin',
(PID.TID 0000.0001) ># tracer 47 - Iron Biomass: Plankton(10)
(PID.TID 0000.0001) > PTRACERS_names(47)='BIO_3_010',
(PID.TID 0000.0001) > PTRACERS_units(47)='mmol Fe/m^3',
(PID.TID 0000.0001) > PTRACERS_advScheme(47)=33,
(PID.TID 0000.0001) > PTRACERS_diffKh(47)=0.E3,
(PID.TID 0000.0001) > PTRACERS_diffKr(47)=1.E-5,
(PID.TID 0000.0001) > PTRACERS_useGMRedi(47)=.FALSE.,
(PID.TID 0000.0001) > PTRACERS_useKPP(47)=.TRUE.,
(PID.TID 0000.0001) > PTRACERS_initialFile(47)='../input/input/loc1_Fe_biomass_janprof.bin',
(PID.TID 0000.0001) ># tracer 48 - Iron Biomass: Plankton(11)
(PID.TID 0000.0001) > PTRACERS_names(48)='BIO_3_011',
(PID.TID 0000.0001) > PTRACERS_units(48)='mmol Fe/m^3',
(PID.TID 0000.0001) > PTRACERS_advScheme(48)=33,
(PID.TID 0000.0001) > PTRACERS_diffKh(48)=0.E3,
(PID.TID 0000.0001) > PTRACERS_diffKr(48)=1.E-5,
(PID.TID 0000.0001) > PTRACERS_useGMRedi(48)=.FALSE.,
(PID.TID 0000.0001) > PTRACERS_useKPP(48)=.TRUE.,
(PID.TID 0000.0001) > PTRACERS_initialFile(48)='../input/input/loc1_Fe_biomass_janprof.bin',
(PID.TID 0000.0001) ># tracer 49 - Iron Biomass: Plankton(12)
(PID.TID 0000.0001) > PTRACERS_names(49)='BIO_3_012',
(PID.TID 0000.0001) > PTRACERS_units(49)='mmol Fe/m^3',
(PID.TID 0000.0001) > PTRACERS_advScheme(49)=33,
(PID.TID 0000.0001) > PTRACERS_diffKh(49)=0.E3,
(PID.TID 0000.0001) > PTRACERS_diffKr(49)=1.E-5,
(PID.TID 0000.0001) > PTRACERS_useGMRedi(49)=.FALSE.,
(PID.TID 0000.0001) > PTRACERS_useKPP(49)=.TRUE.,
(PID.TID 0000.0001) > PTRACERS_initialFile(49)='../input/input/loc1_Fe_biomass_janprof.bin',
(PID.TID 0000.0001) ># tracer 50 - Iron Biomass: Plankton(13)
(PID.TID 0000.0001) > PTRACERS_names(50)='BIO_3_013',
(PID.TID 0000.0001) > PTRACERS_units(50)='mmol Fe/m^3',
(PID.TID 0000.0001) > PTRACERS_advScheme(50)=33,
(PID.TID 0000.0001) > PTRACERS_diffKh(50)=0.E3,
(PID.TID 0000.0001) > PTRACERS_diffKr(50)=1.E-5,
(PID.TID 0000.0001) > PTRACERS_useGMRedi(50)=.FALSE.,
(PID.TID 0000.0001) > PTRACERS_useKPP(50)=.TRUE.,
(PID.TID 0000.0001) > PTRACERS_initialFile(50)='../input/input/loc1_Fe_biomass_janprof.bin',
(PID.TID 0000.0001) ># tracer 51 - Iron Biomass: Plankton(14)
(PID.TID 0000.0001) > PTRACERS_names(51)='BIO_3_014',
(PID.TID 0000.0001) > PTRACERS_units(51)='mmol Fe/m^3',
(PID.TID 0000.0001) > PTRACERS_advScheme(51)=33,
(PID.TID 0000.0001) > PTRACERS_diffKh(51)=0.E3,
(PID.TID 0000.0001) > PTRACERS_diffKr(51)=1.E-5,
(PID.TID 0000.0001) > PTRACERS_useGMRedi(51)=.FALSE.,
(PID.TID 0000.0001) > PTRACERS_useKPP(51)=.TRUE.,
(PID.TID 0000.0001) > PTRACERS_initialFile(51)='../input/input/loc1_Fe_biomass_janprof.bin',
(PID.TID 0000.0001) ># tracer 52 - Iron Biomass: Plankton(15)
(PID.TID 0000.0001) > PTRACERS_names(52)='BIO_3_015',
(PID.TID 0000.0001) > PTRACERS_units(52)='mmol Fe/m^3',
(PID.TID 0000.0001) > PTRACERS_advScheme(52)=33,
(PID.TID 0000.0001) > PTRACERS_diffKh(52)=0.E3,
(PID.TID 0000.0001) > PTRACERS_diffKr(52)=1.E-5,
(PID.TID 0000.0001) > PTRACERS_useGMRedi(52)=.FALSE.,
(PID.TID 0000.0001) > PTRACERS_useKPP(52)=.TRUE.,
(PID.TID 0000.0001) > PTRACERS_initialFile(52)='../input/input/loc1_Fe_biomass_janprof.bin',
(PID.TID 0000.0001) ># tracer 53 - Iron Biomass: Plankton(16)
(PID.TID 0000.0001) > PTRACERS_names(53)='BIO_3_016',
(PID.TID 0000.0001) > PTRACERS_units(53)='mmol Fe/m^3',
(PID.TID 0000.0001) > PTRACERS_advScheme(53)=33,
(PID.TID 0000.0001) > PTRACERS_diffKh(53)=0.E3,
(PID.TID 0000.0001) > PTRACERS_diffKr(53)=1.E-5,
(PID.TID 0000.0001) > PTRACERS_useGMRedi(53)=.FALSE.,
(PID.TID 0000.0001) > PTRACERS_useKPP(53)=.TRUE.,
(PID.TID 0000.0001) > PTRACERS_initialFile(53)='../input/input/loc1_Fe_biomass_janprof.bin',
(PID.TID 0000.0001) ># tracer 54 - Chlorophyll Biomass: Plankton(1)
(PID.TID 0000.0001) > PTRACERS_names(54)='BIO_4_001',
(PID.TID 0000.0001) > PTRACERS_units(54)='mg Chl/m^3',
(PID.TID 0000.0001) > PTRACERS_advScheme(54)=33,
(PID.TID 0000.0001) > PTRACERS_diffKh(54)=0.E3,
(PID.TID 0000.0001) > PTRACERS_diffKr(54)=1.E-5,
(PID.TID 0000.0001) > PTRACERS_useGMRedi(54)=.FALSE.,
(PID.TID 0000.0001) > PTRACERS_useKPP(54)=.TRUE.,
(PID.TID 0000.0001) > PTRACERS_initialFile(54)='../input/input/loc1_chlorophyll_janprof.bin',
(PID.TID 0000.0001) ># tracer 55 - Chlorophyll Biomass: Plankton(2)
(PID.TID 0000.0001) > PTRACERS_names(55)='BIO_4_002',
(PID.TID 0000.0001) > PTRACERS_units(55)='mg Chl/m^3',
(PID.TID 0000.0001) > PTRACERS_advScheme(55)=33,
(PID.TID 0000.0001) > PTRACERS_diffKh(55)=0.E3,
(PID.TID 0000.0001) > PTRACERS_diffKr(55)=1.E-5,
(PID.TID 0000.0001) > PTRACERS_useGMRedi(55)=.FALSE.,
(PID.TID 0000.0001) > PTRACERS_useKPP(55)=.TRUE.,
(PID.TID 0000.0001) > PTRACERS_initialFile(55)='../input/input/loc1_chlorophyll_janprof.bin',
(PID.TID 0000.0001) ># tracer 56 - Chlorophyll Biomass: Plankton(3)
(PID.TID 0000.0001) > PTRACERS_names(56)='BIO_4_003',
(PID.TID 0000.0001) > PTRACERS_units(56)='mg Chl/m^3',
(PID.TID 0000.0001) > PTRACERS_advScheme(56)=33,
(PID.TID 0000.0001) > PTRACERS_diffKh(56)=0.E3,
(PID.TID 0000.0001) > PTRACERS_diffKr(56)=1.E-5,
(PID.TID 0000.0001) > PTRACERS_useGMRedi(56)=.FALSE.,
(PID.TID 0000.0001) > PTRACERS_useKPP(56)=.TRUE.,
(PID.TID 0000.0001) > PTRACERS_initialFile(56)='../input/input/loc1_chlorophyll_janprof.bin',
(PID.TID 0000.0001) ># tracer 57 - Chlorophyll Biomass: Plankton(4)
(PID.TID 0000.0001) > PTRACERS_names(57)='BIO_4_004',
(PID.TID 0000.0001) > PTRACERS_units(57)='mg Chl/m^3',
(PID.TID 0000.0001) > PTRACERS_advScheme(57)=33,
(PID.TID 0000.0001) > PTRACERS_diffKh(57)=0.E3,
(PID.TID 0000.0001) > PTRACERS_diffKr(57)=1.E-5,
(PID.TID 0000.0001) > PTRACERS_useGMRedi(57)=.FALSE.,
(PID.TID 0000.0001) > PTRACERS_useKPP(57)=.TRUE.,
(PID.TID 0000.0001) > PTRACERS_initialFile(57)='../input/input/loc1_chlorophyll_janprof.bin',
(PID.TID 0000.0001) ># tracer 58 - Chlorophyll Biomass: Plankton(5)
(PID.TID 0000.0001) > PTRACERS_names(58)='BIO_4_005',
(PID.TID 0000.0001) > PTRACERS_units(58)='mg Chl/m^3',
(PID.TID 0000.0001) > PTRACERS_advScheme(58)=33,
(PID.TID 0000.0001) > PTRACERS_diffKh(58)=0.E3,
(PID.TID 0000.0001) > PTRACERS_diffKr(58)=1.E-5,
(PID.TID 0000.0001) > PTRACERS_useGMRedi(58)=.FALSE.,
(PID.TID 0000.0001) > PTRACERS_useKPP(58)=.TRUE.,
(PID.TID 0000.0001) > PTRACERS_initialFile(58)='../input/input/loc1_chlorophyll_janprof.bin',
(PID.TID 0000.0001) ># tracer 59 - Chlorophyll Biomass: Plankton(6)
(PID.TID 0000.0001) > PTRACERS_names(59)='BIO_4_006',
(PID.TID 0000.0001) > PTRACERS_units(59)='mg Chl/m^3',
(PID.TID 0000.0001) > PTRACERS_advScheme(59)=33,
(PID.TID 0000.0001) > PTRACERS_diffKh(59)=0.E3,
(PID.TID 0000.0001) > PTRACERS_diffKr(59)=1.E-5,
(PID.TID 0000.0001) > PTRACERS_useGMRedi(59)=.FALSE.,
(PID.TID 0000.0001) > PTRACERS_useKPP(59)=.TRUE.,
(PID.TID 0000.0001) > PTRACERS_initialFile(59)='../input/input/loc1_chlorophyll_janprof.bin',
(PID.TID 0000.0001) ># tracer 60 - Chlorophyll Biomass: Plankton(7)
(PID.TID 0000.0001) > PTRACERS_names(60)='BIO_4_007',
(PID.TID 0000.0001) > PTRACERS_units(60)='mg Chl/m^3',
(PID.TID 0000.0001) > PTRACERS_advScheme(60)=33,
(PID.TID 0000.0001) > PTRACERS_diffKh(60)=0.E3,
(PID.TID 0000.0001) > PTRACERS_diffKr(60)=1.E-5,
(PID.TID 0000.0001) > PTRACERS_useGMRedi(60)=.FALSE.,
(PID.TID 0000.0001) > PTRACERS_useKPP(60)=.TRUE.,
(PID.TID 0000.0001) > PTRACERS_initialFile(60)='../input/input/loc1_chlorophyll_janprof.bin',
(PID.TID 0000.0001) ># tracer 61 - Chlorophyll Biomass: Plankton(8)
(PID.TID 0000.0001) > PTRACERS_names(61)='BIO_4_008',
(PID.TID 0000.0001) > PTRACERS_units(61)='mg Chl/m^3',
(PID.TID 0000.0001) > PTRACERS_advScheme(61)=33,
(PID.TID 0000.0001) > PTRACERS_diffKh(61)=0.E3,
(PID.TID 0000.0001) > PTRACERS_diffKr(61)=1.E-5,
(PID.TID 0000.0001) > PTRACERS_useGMRedi(61)=.FALSE.,
(PID.TID 0000.0001) > PTRACERS_useKPP(61)=.TRUE.,
(PID.TID 0000.0001) > PTRACERS_initialFile(61)='../input/input/loc1_chlorophyll_janprof.bin',
(PID.TID 0000.0001) ># tracer 62 - Chlorophyll Biomass: Plankton(9)
(PID.TID 0000.0001) > PTRACERS_names(62)='BIO_4_009',
(PID.TID 0000.0001) > PTRACERS_units(62)='mg Chl/m^3',
(PID.TID 0000.0001) > PTRACERS_advScheme(62)=33,
(PID.TID 0000.0001) > PTRACERS_diffKh(62)=0.E3,
(PID.TID 0000.0001) > PTRACERS_diffKr(62)=1.E-5,
(PID.TID 0000.0001) > PTRACERS_useGMRedi(62)=.FALSE.,
(PID.TID 0000.0001) > PTRACERS_useKPP(62)=.TRUE.,
(PID.TID 0000.0001) > PTRACERS_initialFile(62)='../input/input/loc1_chlorophyll_janprof.bin',
(PID.TID 0000.0001) ># tracer 63 - Chlorophyll Biomass: Plankton(10)
(PID.TID 0000.0001) > PTRACERS_names(63)='BIO_4_010',
(PID.TID 0000.0001) > PTRACERS_units(63)='mg Chl/m^3',
(PID.TID 0000.0001) > PTRACERS_advScheme(63)=33,
(PID.TID 0000.0001) > PTRACERS_diffKh(63)=0.E3,
(PID.TID 0000.0001) > PTRACERS_diffKr(63)=1.E-5,
(PID.TID 0000.0001) > PTRACERS_useGMRedi(63)=.FALSE.,
(PID.TID 0000.0001) > PTRACERS_useKPP(63)=.TRUE.,
(PID.TID 0000.0001) > PTRACERS_initialFile(63)='../input/input/loc1_chlorophyll_janprof.bin',
(PID.TID 0000.0001) ># tracer 64 - Chlorophyll Biomass: Plankton(11)
(PID.TID 0000.0001) > PTRACERS_names(64)='BIO_4_011',
(PID.TID 0000.0001) > PTRACERS_units(64)='mg Chl/m^3',
(PID.TID 0000.0001) > PTRACERS_advScheme(64)=33,
(PID.TID 0000.0001) > PTRACERS_diffKh(64)=0.E3,
(PID.TID 0000.0001) > PTRACERS_diffKr(64)=1.E-5,
(PID.TID 0000.0001) > PTRACERS_useGMRedi(64)=.FALSE.,
(PID.TID 0000.0001) > PTRACERS_useKPP(64)=.TRUE.,
(PID.TID 0000.0001) > PTRACERS_initialFile(64)='../input/input/loc1_chlorophyll_janprof.bin',
(PID.TID 0000.0001) ># tracer 65 - Chlorophyll Biomass: Plankton(12)
(PID.TID 0000.0001) > PTRACERS_names(65)='BIO_4_012',
(PID.TID 0000.0001) > PTRACERS_units(65)='mg Chl/m^3',
(PID.TID 0000.0001) > PTRACERS_advScheme(65)=33,
(PID.TID 0000.0001) > PTRACERS_diffKh(65)=0.E3,
(PID.TID 0000.0001) > PTRACERS_diffKr(65)=1.E-5,
(PID.TID 0000.0001) > PTRACERS_useGMRedi(65)=.FALSE.,
(PID.TID 0000.0001) > PTRACERS_useKPP(65)=.TRUE.,
(PID.TID 0000.0001) > PTRACERS_initialFile(65)='../input/input/loc1_chlorophyll_janprof.bin',
(PID.TID 0000.0001) ># tracer 66 - Chlorophyll Biomass: Plankton(13)
(PID.TID 0000.0001) > PTRACERS_names(66)='BIO_4_013',
(PID.TID 0000.0001) > PTRACERS_units(66)='mg Chl/m^3',
(PID.TID 0000.0001) > PTRACERS_advScheme(66)=33,
(PID.TID 0000.0001) > PTRACERS_diffKh(66)=0.E3,
(PID.TID 0000.0001) > PTRACERS_diffKr(66)=1.E-5,
(PID.TID 0000.0001) > PTRACERS_useGMRedi(66)=.FALSE.,
(PID.TID 0000.0001) > PTRACERS_useKPP(66)=.TRUE.,
(PID.TID 0000.0001) > PTRACERS_initialFile(66)='../input/input/loc1_chlorophyll_janprof.bin',
(PID.TID 0000.0001) ># tracer 67 - Chlorophyll Biomass: Plankton(14)
(PID.TID 0000.0001) > PTRACERS_names(67)='BIO_4_014',
(PID.TID 0000.0001) > PTRACERS_units(67)='mg Chl/m^3',
(PID.TID 0000.0001) > PTRACERS_advScheme(67)=33,
(PID.TID 0000.0001) > PTRACERS_diffKh(67)=0.E3,
(PID.TID 0000.0001) > PTRACERS_diffKr(67)=1.E-5,
(PID.TID 0000.0001) > PTRACERS_useGMRedi(67)=.FALSE.,
(PID.TID 0000.0001) > PTRACERS_useKPP(67)=.TRUE.,
(PID.TID 0000.0001) > PTRACERS_initialFile(67)='../input/input/loc1_chlorophyll_janprof.bin',
(PID.TID 0000.0001) ># tracer 68 - Chlorophyll Biomass: Plankton(15)
(PID.TID 0000.0001) > PTRACERS_names(68)='BIO_4_015',
(PID.TID 0000.0001) > PTRACERS_units(68)='mg Chl/m^3',
(PID.TID 0000.0001) > PTRACERS_advScheme(68)=33,
(PID.TID 0000.0001) > PTRACERS_diffKh(68)=0.E3,
(PID.TID 0000.0001) > PTRACERS_diffKr(68)=1.E-5,
(PID.TID 0000.0001) > PTRACERS_useGMRedi(68)=.FALSE.,
(PID.TID 0000.0001) > PTRACERS_useKPP(68)=.TRUE.,
(PID.TID 0000.0001) > PTRACERS_initialFile(68)='../input/input/loc1_chlorophyll_janprof.bin',
(PID.TID 0000.0001) ># tracer 69 - Chlorophyll Biomass: Plankton(16)
(PID.TID 0000.0001) > PTRACERS_names(69)='BIO_4_016',
(PID.TID 0000.0001) > PTRACERS_units(69)='mg Chl/m^3',
(PID.TID 0000.0001) > PTRACERS_advScheme(69)=33,
(PID.TID 0000.0001) > PTRACERS_diffKh(69)=0.E3,
(PID.TID 0000.0001) > PTRACERS_diffKr(69)=1.E-5,
(PID.TID 0000.0001) > PTRACERS_useGMRedi(69)=.FALSE.,
(PID.TID 0000.0001) > PTRACERS_useKPP(69)=.TRUE.,
(PID.TID 0000.0001) > PTRACERS_initialFile(69)='../input/input/loc1_chlorophyll_janprof.bin',
(PID.TID 0000.0001) ># tracer 70 - Dissolved Organic Carbon
(PID.TID 0000.0001) > PTRACERS_names(70)='OM_1_1',
(PID.TID 0000.0001) > PTRACERS_units(70)='mmol C/m^3',
(PID.TID 0000.0001) > PTRACERS_advScheme(70)=33,
(PID.TID 0000.0001) > PTRACERS_diffKh(70)=0.E3,
(PID.TID 0000.0001) > PTRACERS_diffKr(70)=1.E-5,
(PID.TID 0000.0001) > PTRACERS_useGMRedi(70)=.FALSE.,
(PID.TID 0000.0001) > PTRACERS_useKPP(70)=.TRUE.,
(PID.TID 0000.0001) > PTRACERS_initialFile(70)='../input/input/loc1_DOC_janprof.bin',
(PID.TID 0000.0001) ># tracer 71 - Particulate Organic Carbon
(PID.TID 0000.0001) > PTRACERS_names(71)='OM_1_2',
(PID.TID 0000.0001) > PTRACERS_units(71)='mmol C/m^3',
(PID.TID 0000.0001) > PTRACERS_advScheme(71)=33,
(PID.TID 0000.0001) > PTRACERS_diffKh(71)=0.E3,
(PID.TID 0000.0001) > PTRACERS_diffKr(71)=1.E-5,
(PID.TID 0000.0001) > PTRACERS_useGMRedi(71)=.FALSE.,
(PID.TID 0000.0001) > PTRACERS_useKPP(71)=.TRUE.,
(PID.TID 0000.0001) > PTRACERS_initialFile(71)='../input/input/loc1_POC_janprof.bin',
(PID.TID 0000.0001) ># tracer 72 - Dissolved Organic Nitrogen
(PID.TID 0000.0001) > PTRACERS_names(72)='OM_2_1',
(PID.TID 0000.0001) > PTRACERS_units(72)='mmol N/m^3',
(PID.TID 0000.0001) > PTRACERS_advScheme(72)=33,
(PID.TID 0000.0001) > PTRACERS_diffKh(72)=0.E3,
(PID.TID 0000.0001) > PTRACERS_diffKr(72)=1.E-5,
(PID.TID 0000.0001) > PTRACERS_useGMRedi(72)=.FALSE.,
(PID.TID 0000.0001) > PTRACERS_useKPP(72)=.TRUE.,
(PID.TID 0000.0001) > PTRACERS_initialFile(72)='../input/input/loc1_DON_run83_janprof.bin',
(PID.TID 0000.0001) ># tracer 73 - Particulate Organic Nitrogen
(PID.TID 0000.0001) > PTRACERS_names(73)='OM_2_2',
(PID.TID 0000.0001) > PTRACERS_units(73)='mmol N/m^3',
(PID.TID 0000.0001) > PTRACERS_advScheme(73)=33,
(PID.TID 0000.0001) > PTRACERS_diffKh(73)=0.E3,
(PID.TID 0000.0001) > PTRACERS_diffKr(73)=1.E-5,
(PID.TID 0000.0001) > PTRACERS_useGMRedi(73)=.FALSE.,
(PID.TID 0000.0001) > PTRACERS_useKPP(73)=.TRUE.,
(PID.TID 0000.0001) > PTRACERS_initialFile(73)='../input/input/loc1_PON_run83_janprof.bin',
(PID.TID 0000.0001) ># tracer 74 - Dissolved Organic Iron
(PID.TID 0000.0001) > PTRACERS_names(74)='OM_3_1',
(PID.TID 0000.0001) > PTRACERS_units(74)='mmol Fe/m^3',
(PID.TID 0000.0001) > PTRACERS_advScheme(74)=33,
(PID.TID 0000.0001) > PTRACERS_diffKh(74)=0.E3,
(PID.TID 0000.0001) > PTRACERS_diffKr(74)=1.E-5,
(PID.TID 0000.0001) > PTRACERS_useGMRedi(74)=.FALSE.,
(PID.TID 0000.0001) > PTRACERS_useKPP(74)=.TRUE.,
(PID.TID 0000.0001) > PTRACERS_initialFile(74)='../input/input/loc1_DOFe_run83_janprof.bin',
(PID.TID 0000.0001) ># tracer 75 - Particulate Organic Iron
(PID.TID 0000.0001) > PTRACERS_names(75)='OM_3_2',
(PID.TID 0000.0001) > PTRACERS_units(75)='mmol Fe/m^3',
(PID.TID 0000.0001) > PTRACERS_advScheme(75)=33,
(PID.TID 0000.0001) > PTRACERS_diffKh(75)=0.E3,
(PID.TID 0000.0001) > PTRACERS_diffKr(75)=1.E-5,
(PID.TID 0000.0001) > PTRACERS_useGMRedi(75)=.FALSE.,
(PID.TID 0000.0001) > PTRACERS_useKPP(75)=.TRUE.,
(PID.TID 0000.0001) > PTRACERS_initialFile(75)='../input/input/loc1_POFe_run83_janprof.bin',
(PID.TID 0000.0001) > /
(PID.TID 0000.0001) 
(PID.TID 0000.0001)  PTRACERS_READPARMS: finished reading data.ptracers
(PID.TID 0000.0001) // ===================================
(PID.TID 0000.0001) // PTRACERS parameters
(PID.TID 0000.0001) // ===================================
(PID.TID 0000.0001) PTRACERS_numInUse = /* number of tracers */
(PID.TID 0000.0001)                      75
(PID.TID 0000.0001)     ;
(PID.TID 0000.0001) PTRACERS_Iter0 = /* timestep number when tracers are initialized */
(PID.TID 0000.0001)                       0
(PID.TID 0000.0001)     ;
(PID.TID 0000.0001) PTRACERS_addSrelax2EmP =/* add Salt relaxation to EmP */
(PID.TID 0000.0001)                   F
(PID.TID 0000.0001)     ;
(PID.TID 0000.0001) PTRACERS_dTLev =   /* Ptracer timestep ( s ) */
(PID.TID 0000.0001)    35 @  1.080000000000000E+04              /* K =  1: 35 */
(PID.TID 0000.0001)     ;
(PID.TID 0000.0001) PTRACERS_dumpFreq = /* Frequency^-1 for snapshot output (s) */
(PID.TID 0000.0001)                 3.110400000000000E+07
(PID.TID 0000.0001)     ;
(PID.TID 0000.0001) PTRACERS_taveFreq = /* Frequency^-1 for time-Aver. output (s) */
(PID.TID 0000.0001)                 8.640000000000000E+04
(PID.TID 0000.0001)     ;
(PID.TID 0000.0001) PTRACERS_useRecords = /* all tracers in 1 file */
(PID.TID 0000.0001)                   F
(PID.TID 0000.0001)     ;
(PID.TID 0000.0001) PTRACERS_timeave_mnc = /* use MNC for Tave output */
(PID.TID 0000.0001)                   T
(PID.TID 0000.0001)     ;
(PID.TID 0000.0001) PTRACERS_snapshot_mnc = /* use MNC for snapshot output */
(PID.TID 0000.0001)                   T
(PID.TID 0000.0001)     ;
(PID.TID 0000.0001) PTRACERS_pickup_write_mnc = /* use MNC for writing pickups */
(PID.TID 0000.0001)                   F
(PID.TID 0000.0001)     ;
(PID.TID 0000.0001) PTRACERS_pickup_read_mnc = /* use MNC for reading pickups */
(PID.TID 0000.0001)                   F
(PID.TID 0000.0001)     ;
(PID.TID 0000.0001)  -----------------------------------
(PID.TID 0000.0001)  tracer number :    1
(PID.TID 0000.0001) PTRACERS_names = /* Tracer short name */
(PID.TID 0000.0001)               'DIC'
(PID.TID 0000.0001)     ;
(PID.TID 0000.0001) PTRACERS_long_names = /* Tracer long name */
(PID.TID 0000.0001)               ''
(PID.TID 0000.0001)     ;
(PID.TID 0000.0001) PTRACERS_ioLabel = /* tracer IO Label */
(PID.TID 0000.0001)               '01'
(PID.TID 0000.0001)     ;
(PID.TID 0000.0001) PTRACERS_advScheme = /* Advection Scheme */
(PID.TID 0000.0001)                      33
(PID.TID 0000.0001)     ;
(PID.TID 0000.0001) PTRACERS_ImplVertAdv = /* implicit vert. advection flag */
(PID.TID 0000.0001)                   F
(PID.TID 0000.0001)     ;
(PID.TID 0000.0001) PTRACERS_diffKh = /* Laplacian Diffusivity */
(PID.TID 0000.0001)                 0.000000000000000E+00
(PID.TID 0000.0001)     ;
(PID.TID 0000.0001) PTRACERS_diffK4 = /* Biharmonic Diffusivity */
(PID.TID 0000.0001)                 0.000000000000000E+00
(PID.TID 0000.0001)     ;
(PID.TID 0000.0001) PTRACERS_diffKrNr = /* Vertical Diffusivity */
(PID.TID 0000.0001)    35 @  1.000000000000000E-05              /* K =  1: 35 */
(PID.TID 0000.0001)     ;
(PID.TID 0000.0001) PTRACERS_useGMRedi = /* apply GM-Redi */
(PID.TID 0000.0001)                   F
(PID.TID 0000.0001)     ;
(PID.TID 0000.0001) PTRACERS_useDWNSLP = /* apply DOWN-SLOPE Flow */
(PID.TID 0000.0001)                   F
(PID.TID 0000.0001)     ;
(PID.TID 0000.0001) PTRACERS_useKPP = /* apply KPP scheme */
(PID.TID 0000.0001)                   T
(PID.TID 0000.0001)     ;
(PID.TID 0000.0001) PTRACERS_ref = /* Reference vertical profile */
(PID.TID 0000.0001)    35 @  0.000000000000000E+00              /* K =  1: 35 */
(PID.TID 0000.0001)     ;
(PID.TID 0000.0001) PTRACERS_EvPrRn =/* tracer conc. in Evap. & Rain */
(PID.TID 0000.0001)                 1.234567000000000E+05
(PID.TID 0000.0001)     ;
(PID.TID 0000.0001)  -----------------------------------
(PID.TID 0000.0001)  tracer number :    2
(PID.TID 0000.0001) PTRACERS_names = /* Tracer short name */
(PID.TID 0000.0001)               'NO3'
(PID.TID 0000.0001)     ;
(PID.TID 0000.0001) PTRACERS_long_names = /* Tracer long name */
(PID.TID 0000.0001)               ''
(PID.TID 0000.0001)     ;
(PID.TID 0000.0001) PTRACERS_ioLabel = /* tracer IO Label */
(PID.TID 0000.0001)               '02'
(PID.TID 0000.0001)     ;
(PID.TID 0000.0001) PTRACERS_advScheme = /* Advection Scheme */
(PID.TID 0000.0001)                      33
(PID.TID 0000.0001)     ;
(PID.TID 0000.0001) PTRACERS_ImplVertAdv = /* implicit vert. advection flag */
(PID.TID 0000.0001)                   F
(PID.TID 0000.0001)     ;
(PID.TID 0000.0001) PTRACERS_diffKh = /* Laplacian Diffusivity */
(PID.TID 0000.0001)                 0.000000000000000E+00
(PID.TID 0000.0001)     ;
(PID.TID 0000.0001) PTRACERS_diffK4 = /* Biharmonic Diffusivity */
(PID.TID 0000.0001)                 0.000000000000000E+00
(PID.TID 0000.0001)     ;
(PID.TID 0000.0001) PTRACERS_diffKrNr = /* Vertical Diffusivity */
(PID.TID 0000.0001)    35 @  1.000000000000000E-05              /* K =  1: 35 */
(PID.TID 0000.0001)     ;
(PID.TID 0000.0001) PTRACERS_useGMRedi = /* apply GM-Redi */
(PID.TID 0000.0001)                   F
(PID.TID 0000.0001)     ;
(PID.TID 0000.0001) PTRACERS_useDWNSLP = /* apply DOWN-SLOPE Flow */
(PID.TID 0000.0001)                   F
(PID.TID 0000.0001)     ;
(PID.TID 0000.0001) PTRACERS_useKPP = /* apply KPP scheme */
(PID.TID 0000.0001)                   T
(PID.TID 0000.0001)     ;
(PID.TID 0000.0001) PTRACERS_ref = /* Reference vertical profile */
(PID.TID 0000.0001)    35 @  0.000000000000000E+00              /* K =  1: 35 */
(PID.TID 0000.0001)     ;
(PID.TID 0000.0001) PTRACERS_EvPrRn =/* tracer conc. in Evap. & Rain */
(PID.TID 0000.0001)                 1.234567000000000E+05
(PID.TID 0000.0001)     ;
(PID.TID 0000.0001)  -----------------------------------
(PID.TID 0000.0001)  tracer number :    3
(PID.TID 0000.0001) PTRACERS_names = /* Tracer short name */
(PID.TID 0000.0001)               'NO2'
(PID.TID 0000.0001)     ;
(PID.TID 0000.0001) PTRACERS_long_names = /* Tracer long name */
(PID.TID 0000.0001)               ''
(PID.TID 0000.0001)     ;
(PID.TID 0000.0001) PTRACERS_ioLabel = /* tracer IO Label */
(PID.TID 0000.0001)               '03'
(PID.TID 0000.0001)     ;
(PID.TID 0000.0001) PTRACERS_advScheme = /* Advection Scheme */
(PID.TID 0000.0001)                      33
(PID.TID 0000.0001)     ;
(PID.TID 0000.0001) PTRACERS_ImplVertAdv = /* implicit vert. advection flag */
(PID.TID 0000.0001)                   F
(PID.TID 0000.0001)     ;
(PID.TID 0000.0001) PTRACERS_diffKh = /* Laplacian Diffusivity */
(PID.TID 0000.0001)                 0.000000000000000E+00
(PID.TID 0000.0001)     ;
(PID.TID 0000.0001) PTRACERS_diffK4 = /* Biharmonic Diffusivity */
(PID.TID 0000.0001)                 0.000000000000000E+00
(PID.TID 0000.0001)     ;
(PID.TID 0000.0001) PTRACERS_diffKrNr = /* Vertical Diffusivity */
(PID.TID 0000.0001)    35 @  1.000000000000000E-05              /* K =  1: 35 */
(PID.TID 0000.0001)     ;
(PID.TID 0000.0001) PTRACERS_useGMRedi = /* apply GM-Redi */
(PID.TID 0000.0001)                   F
(PID.TID 0000.0001)     ;
(PID.TID 0000.0001) PTRACERS_useDWNSLP = /* apply DOWN-SLOPE Flow */
(PID.TID 0000.0001)                   F
(PID.TID 0000.0001)     ;
(PID.TID 0000.0001) PTRACERS_useKPP = /* apply KPP scheme */
(PID.TID 0000.0001)                   T
(PID.TID 0000.0001)     ;
(PID.TID 0000.0001) PTRACERS_ref = /* Reference vertical profile */
(PID.TID 0000.0001)    35 @  0.000000000000000E+00              /* K =  1: 35 */
(PID.TID 0000.0001)     ;
(PID.TID 0000.0001) PTRACERS_EvPrRn =/* tracer conc. in Evap. & Rain */
(PID.TID 0000.0001)                 1.234567000000000E+05
(PID.TID 0000.0001)     ;
(PID.TID 0000.0001)  -----------------------------------
(PID.TID 0000.0001)  tracer number :    4
(PID.TID 0000.0001) PTRACERS_names = /* Tracer short name */
(PID.TID 0000.0001)               'NH4'
(PID.TID 0000.0001)     ;
(PID.TID 0000.0001) PTRACERS_long_names = /* Tracer long name */
(PID.TID 0000.0001)               ''
(PID.TID 0000.0001)     ;
(PID.TID 0000.0001) PTRACERS_ioLabel = /* tracer IO Label */
(PID.TID 0000.0001)               '04'
(PID.TID 0000.0001)     ;
(PID.TID 0000.0001) PTRACERS_advScheme = /* Advection Scheme */
(PID.TID 0000.0001)                      33
(PID.TID 0000.0001)     ;
(PID.TID 0000.0001) PTRACERS_ImplVertAdv = /* implicit vert. advection flag */
(PID.TID 0000.0001)                   F
(PID.TID 0000.0001)     ;
(PID.TID 0000.0001) PTRACERS_diffKh = /* Laplacian Diffusivity */
(PID.TID 0000.0001)                 0.000000000000000E+00
(PID.TID 0000.0001)     ;
(PID.TID 0000.0001) PTRACERS_diffK4 = /* Biharmonic Diffusivity */
(PID.TID 0000.0001)                 0.000000000000000E+00
(PID.TID 0000.0001)     ;
(PID.TID 0000.0001) PTRACERS_diffKrNr = /* Vertical Diffusivity */
(PID.TID 0000.0001)    35 @  1.000000000000000E-05              /* K =  1: 35 */
(PID.TID 0000.0001)     ;
(PID.TID 0000.0001) PTRACERS_useGMRedi = /* apply GM-Redi */
(PID.TID 0000.0001)                   F
(PID.TID 0000.0001)     ;
(PID.TID 0000.0001) PTRACERS_useDWNSLP = /* apply DOWN-SLOPE Flow */
(PID.TID 0000.0001)                   F
(PID.TID 0000.0001)     ;
(PID.TID 0000.0001) PTRACERS_useKPP = /* apply KPP scheme */
(PID.TID 0000.0001)                   T
(PID.TID 0000.0001)     ;
(PID.TID 0000.0001) PTRACERS_ref = /* Reference vertical profile */
(PID.TID 0000.0001)    35 @  0.000000000000000E+00              /* K =  1: 35 */
(PID.TID 0000.0001)     ;
(PID.TID 0000.0001) PTRACERS_EvPrRn =/* tracer conc. in Evap. & Rain */
(PID.TID 0000.0001)                 1.234567000000000E+05
(PID.TID 0000.0001)     ;
(PID.TID 0000.0001)  -----------------------------------
(PID.TID 0000.0001)  tracer number :    5
(PID.TID 0000.0001) PTRACERS_names = /* Tracer short name */
(PID.TID 0000.0001)               'FeT'
(PID.TID 0000.0001)     ;
(PID.TID 0000.0001) PTRACERS_long_names = /* Tracer long name */
(PID.TID 0000.0001)               ''
(PID.TID 0000.0001)     ;
(PID.TID 0000.0001) PTRACERS_ioLabel = /* tracer IO Label */
(PID.TID 0000.0001)               '05'
(PID.TID 0000.0001)     ;
(PID.TID 0000.0001) PTRACERS_advScheme = /* Advection Scheme */
(PID.TID 0000.0001)                      33
(PID.TID 0000.0001)     ;
(PID.TID 0000.0001) PTRACERS_ImplVertAdv = /* implicit vert. advection flag */
(PID.TID 0000.0001)                   F
(PID.TID 0000.0001)     ;
(PID.TID 0000.0001) PTRACERS_diffKh = /* Laplacian Diffusivity */
(PID.TID 0000.0001)                 0.000000000000000E+00
(PID.TID 0000.0001)     ;
(PID.TID 0000.0001) PTRACERS_diffK4 = /* Biharmonic Diffusivity */
(PID.TID 0000.0001)                 0.000000000000000E+00
(PID.TID 0000.0001)     ;
(PID.TID 0000.0001) PTRACERS_diffKrNr = /* Vertical Diffusivity */
(PID.TID 0000.0001)    35 @  1.000000000000000E-05              /* K =  1: 35 */
(PID.TID 0000.0001)     ;
(PID.TID 0000.0001) PTRACERS_useGMRedi = /* apply GM-Redi */
(PID.TID 0000.0001)                   F
(PID.TID 0000.0001)     ;
(PID.TID 0000.0001) PTRACERS_useDWNSLP = /* apply DOWN-SLOPE Flow */
(PID.TID 0000.0001)                   F
(PID.TID 0000.0001)     ;
(PID.TID 0000.0001) PTRACERS_useKPP = /* apply KPP scheme */
(PID.TID 0000.0001)                   T
(PID.TID 0000.0001)     ;
(PID.TID 0000.0001) PTRACERS_ref = /* Reference vertical profile */
(PID.TID 0000.0001)    35 @  0.000000000000000E+00              /* K =  1: 35 */
(PID.TID 0000.0001)     ;
(PID.TID 0000.0001) PTRACERS_EvPrRn =/* tracer conc. in Evap. & Rain */
(PID.TID 0000.0001)                 1.234567000000000E+05
(PID.TID 0000.0001)     ;
(PID.TID 0000.0001)  -----------------------------------
(PID.TID 0000.0001)  tracer number :    6
(PID.TID 0000.0001) PTRACERS_names = /* Tracer short name */
(PID.TID 0000.0001)               'BIO_1_001'
(PID.TID 0000.0001)     ;
(PID.TID 0000.0001) PTRACERS_long_names = /* Tracer long name */
(PID.TID 0000.0001)               ''
(PID.TID 0000.0001)     ;
(PID.TID 0000.0001) PTRACERS_ioLabel = /* tracer IO Label */
(PID.TID 0000.0001)               '06'
(PID.TID 0000.0001)     ;
(PID.TID 0000.0001) PTRACERS_advScheme = /* Advection Scheme */
(PID.TID 0000.0001)                      33
(PID.TID 0000.0001)     ;
(PID.TID 0000.0001) PTRACERS_ImplVertAdv = /* implicit vert. advection flag */
(PID.TID 0000.0001)                   F
(PID.TID 0000.0001)     ;
(PID.TID 0000.0001) PTRACERS_diffKh = /* Laplacian Diffusivity */
(PID.TID 0000.0001)                 0.000000000000000E+00
(PID.TID 0000.0001)     ;
(PID.TID 0000.0001) PTRACERS_diffK4 = /* Biharmonic Diffusivity */
(PID.TID 0000.0001)                 0.000000000000000E+00
(PID.TID 0000.0001)     ;
(PID.TID 0000.0001) PTRACERS_diffKrNr = /* Vertical Diffusivity */
(PID.TID 0000.0001)    35 @  1.000000000000000E-05              /* K =  1: 35 */
(PID.TID 0000.0001)     ;
(PID.TID 0000.0001) PTRACERS_useGMRedi = /* apply GM-Redi */
(PID.TID 0000.0001)                   F
(PID.TID 0000.0001)     ;
(PID.TID 0000.0001) PTRACERS_useDWNSLP = /* apply DOWN-SLOPE Flow */
(PID.TID 0000.0001)                   F
(PID.TID 0000.0001)     ;
(PID.TID 0000.0001) PTRACERS_useKPP = /* apply KPP scheme */
(PID.TID 0000.0001)                   T
(PID.TID 0000.0001)     ;
(PID.TID 0000.0001) PTRACERS_ref = /* Reference vertical profile */
(PID.TID 0000.0001)    35 @  0.000000000000000E+00              /* K =  1: 35 */
(PID.TID 0000.0001)     ;
(PID.TID 0000.0001) PTRACERS_EvPrRn =/* tracer conc. in Evap. & Rain */
(PID.TID 0000.0001)                 1.234567000000000E+05
(PID.TID 0000.0001)     ;
(PID.TID 0000.0001)  -----------------------------------
(PID.TID 0000.0001)  tracer number :    7
(PID.TID 0000.0001) PTRACERS_names = /* Tracer short name */
(PID.TID 0000.0001)               'BIO_1_002'
(PID.TID 0000.0001)     ;
(PID.TID 0000.0001) PTRACERS_long_names = /* Tracer long name */
(PID.TID 0000.0001)               ''
(PID.TID 0000.0001)     ;
(PID.TID 0000.0001) PTRACERS_ioLabel = /* tracer IO Label */
(PID.TID 0000.0001)               '07'
(PID.TID 0000.0001)     ;
(PID.TID 0000.0001) PTRACERS_advScheme = /* Advection Scheme */
(PID.TID 0000.0001)                      33
(PID.TID 0000.0001)     ;
(PID.TID 0000.0001) PTRACERS_ImplVertAdv = /* implicit vert. advection flag */
(PID.TID 0000.0001)                   F
(PID.TID 0000.0001)     ;
(PID.TID 0000.0001) PTRACERS_diffKh = /* Laplacian Diffusivity */
(PID.TID 0000.0001)                 0.000000000000000E+00
(PID.TID 0000.0001)     ;
(PID.TID 0000.0001) PTRACERS_diffK4 = /* Biharmonic Diffusivity */
(PID.TID 0000.0001)                 0.000000000000000E+00
(PID.TID 0000.0001)     ;
(PID.TID 0000.0001) PTRACERS_diffKrNr = /* Vertical Diffusivity */
(PID.TID 0000.0001)    35 @  1.000000000000000E-05              /* K =  1: 35 */
(PID.TID 0000.0001)     ;
(PID.TID 0000.0001) PTRACERS_useGMRedi = /* apply GM-Redi */
(PID.TID 0000.0001)                   F
(PID.TID 0000.0001)     ;
(PID.TID 0000.0001) PTRACERS_useDWNSLP = /* apply DOWN-SLOPE Flow */
(PID.TID 0000.0001)                   F
(PID.TID 0000.0001)     ;
(PID.TID 0000.0001) PTRACERS_useKPP = /* apply KPP scheme */
(PID.TID 0000.0001)                   T
(PID.TID 0000.0001)     ;
(PID.TID 0000.0001) PTRACERS_ref = /* Reference vertical profile */
(PID.TID 0000.0001)    35 @  0.000000000000000E+00              /* K =  1: 35 */
(PID.TID 0000.0001)     ;
(PID.TID 0000.0001) PTRACERS_EvPrRn =/* tracer conc. in Evap. & Rain */
(PID.TID 0000.0001)                 1.234567000000000E+05
(PID.TID 0000.0001)     ;
(PID.TID 0000.0001)  -----------------------------------
(PID.TID 0000.0001)  tracer number :    8
(PID.TID 0000.0001) PTRACERS_names = /* Tracer short name */
(PID.TID 0000.0001)               'BIO_1_003'
(PID.TID 0000.0001)     ;
(PID.TID 0000.0001) PTRACERS_long_names = /* Tracer long name */
(PID.TID 0000.0001)               ''
(PID.TID 0000.0001)     ;
(PID.TID 0000.0001) PTRACERS_ioLabel = /* tracer IO Label */
(PID.TID 0000.0001)               '08'
(PID.TID 0000.0001)     ;
(PID.TID 0000.0001) PTRACERS_advScheme = /* Advection Scheme */
(PID.TID 0000.0001)                      33
(PID.TID 0000.0001)     ;
(PID.TID 0000.0001) PTRACERS_ImplVertAdv = /* implicit vert. advection flag */
(PID.TID 0000.0001)                   F
(PID.TID 0000.0001)     ;
(PID.TID 0000.0001) PTRACERS_diffKh = /* Laplacian Diffusivity */
(PID.TID 0000.0001)                 0.000000000000000E+00
(PID.TID 0000.0001)     ;
(PID.TID 0000.0001) PTRACERS_diffK4 = /* Biharmonic Diffusivity */
(PID.TID 0000.0001)                 0.000000000000000E+00
(PID.TID 0000.0001)     ;
(PID.TID 0000.0001) PTRACERS_diffKrNr = /* Vertical Diffusivity */
(PID.TID 0000.0001)    35 @  1.000000000000000E-05              /* K =  1: 35 */
(PID.TID 0000.0001)     ;
(PID.TID 0000.0001) PTRACERS_useGMRedi = /* apply GM-Redi */
(PID.TID 0000.0001)                   F
(PID.TID 0000.0001)     ;
(PID.TID 0000.0001) PTRACERS_useDWNSLP = /* apply DOWN-SLOPE Flow */
(PID.TID 0000.0001)                   F
(PID.TID 0000.0001)     ;
(PID.TID 0000.0001) PTRACERS_useKPP = /* apply KPP scheme */
(PID.TID 0000.0001)                   T
(PID.TID 0000.0001)     ;
(PID.TID 0000.0001) PTRACERS_ref = /* Reference vertical profile */
(PID.TID 0000.0001)    35 @  0.000000000000000E+00              /* K =  1: 35 */
(PID.TID 0000.0001)     ;
(PID.TID 0000.0001) PTRACERS_EvPrRn =/* tracer conc. in Evap. & Rain */
(PID.TID 0000.0001)                 1.234567000000000E+05
(PID.TID 0000.0001)     ;
(PID.TID 0000.0001)  -----------------------------------
(PID.TID 0000.0001)  tracer number :    9
(PID.TID 0000.0001) PTRACERS_names = /* Tracer short name */
(PID.TID 0000.0001)               'BIO_1_004'
(PID.TID 0000.0001)     ;
(PID.TID 0000.0001) PTRACERS_long_names = /* Tracer long name */
(PID.TID 0000.0001)               ''
(PID.TID 0000.0001)     ;
(PID.TID 0000.0001) PTRACERS_ioLabel = /* tracer IO Label */
(PID.TID 0000.0001)               '09'
(PID.TID 0000.0001)     ;
(PID.TID 0000.0001) PTRACERS_advScheme = /* Advection Scheme */
(PID.TID 0000.0001)                      33
(PID.TID 0000.0001)     ;
(PID.TID 0000.0001) PTRACERS_ImplVertAdv = /* implicit vert. advection flag */
(PID.TID 0000.0001)                   F
(PID.TID 0000.0001)     ;
(PID.TID 0000.0001) PTRACERS_diffKh = /* Laplacian Diffusivity */
(PID.TID 0000.0001)                 0.000000000000000E+00
(PID.TID 0000.0001)     ;
(PID.TID 0000.0001) PTRACERS_diffK4 = /* Biharmonic Diffusivity */
(PID.TID 0000.0001)                 0.000000000000000E+00
(PID.TID 0000.0001)     ;
(PID.TID 0000.0001) PTRACERS_diffKrNr = /* Vertical Diffusivity */
(PID.TID 0000.0001)    35 @  1.000000000000000E-05              /* K =  1: 35 */
(PID.TID 0000.0001)     ;
(PID.TID 0000.0001) PTRACERS_useGMRedi = /* apply GM-Redi */
(PID.TID 0000.0001)                   F
(PID.TID 0000.0001)     ;
(PID.TID 0000.0001) PTRACERS_useDWNSLP = /* apply DOWN-SLOPE Flow */
(PID.TID 0000.0001)                   F
(PID.TID 0000.0001)     ;
(PID.TID 0000.0001) PTRACERS_useKPP = /* apply KPP scheme */
(PID.TID 0000.0001)                   T
(PID.TID 0000.0001)     ;
(PID.TID 0000.0001) PTRACERS_ref = /* Reference vertical profile */
(PID.TID 0000.0001)    35 @  0.000000000000000E+00              /* K =  1: 35 */
(PID.TID 0000.0001)     ;
(PID.TID 0000.0001) PTRACERS_EvPrRn =/* tracer conc. in Evap. & Rain */
(PID.TID 0000.0001)                 1.234567000000000E+05
(PID.TID 0000.0001)     ;
(PID.TID 0000.0001)  -----------------------------------
(PID.TID 0000.0001)  tracer number :   10
(PID.TID 0000.0001) PTRACERS_names = /* Tracer short name */
(PID.TID 0000.0001)               'BIO_1_005'
(PID.TID 0000.0001)     ;
(PID.TID 0000.0001) PTRACERS_long_names = /* Tracer long name */
(PID.TID 0000.0001)               ''
(PID.TID 0000.0001)     ;
(PID.TID 0000.0001) PTRACERS_ioLabel = /* tracer IO Label */
(PID.TID 0000.0001)               '10'
(PID.TID 0000.0001)     ;
(PID.TID 0000.0001) PTRACERS_advScheme = /* Advection Scheme */
(PID.TID 0000.0001)                      33
(PID.TID 0000.0001)     ;
(PID.TID 0000.0001) PTRACERS_ImplVertAdv = /* implicit vert. advection flag */
(PID.TID 0000.0001)                   F
(PID.TID 0000.0001)     ;
(PID.TID 0000.0001) PTRACERS_diffKh = /* Laplacian Diffusivity */
(PID.TID 0000.0001)                 0.000000000000000E+00
(PID.TID 0000.0001)     ;
(PID.TID 0000.0001) PTRACERS_diffK4 = /* Biharmonic Diffusivity */
(PID.TID 0000.0001)                 0.000000000000000E+00
(PID.TID 0000.0001)     ;
(PID.TID 0000.0001) PTRACERS_diffKrNr = /* Vertical Diffusivity */
(PID.TID 0000.0001)    35 @  1.000000000000000E-05              /* K =  1: 35 */
(PID.TID 0000.0001)     ;
(PID.TID 0000.0001) PTRACERS_useGMRedi = /* apply GM-Redi */
(PID.TID 0000.0001)                   F
(PID.TID 0000.0001)     ;
(PID.TID 0000.0001) PTRACERS_useDWNSLP = /* apply DOWN-SLOPE Flow */
(PID.TID 0000.0001)                   F
(PID.TID 0000.0001)     ;
(PID.TID 0000.0001) PTRACERS_useKPP = /* apply KPP scheme */
(PID.TID 0000.0001)                   T
(PID.TID 0000.0001)     ;
(PID.TID 0000.0001) PTRACERS_ref = /* Reference vertical profile */
(PID.TID 0000.0001)    35 @  0.000000000000000E+00              /* K =  1: 35 */
(PID.TID 0000.0001)     ;
(PID.TID 0000.0001) PTRACERS_EvPrRn =/* tracer conc. in Evap. & Rain */
(PID.TID 0000.0001)                 1.234567000000000E+05
(PID.TID 0000.0001)     ;
(PID.TID 0000.0001)  -----------------------------------
(PID.TID 0000.0001)  tracer number :   11
(PID.TID 0000.0001) PTRACERS_names = /* Tracer short name */
(PID.TID 0000.0001)               'BIO_1_006'
(PID.TID 0000.0001)     ;
(PID.TID 0000.0001) PTRACERS_long_names = /* Tracer long name */
(PID.TID 0000.0001)               ''
(PID.TID 0000.0001)     ;
(PID.TID 0000.0001) PTRACERS_ioLabel = /* tracer IO Label */
(PID.TID 0000.0001)               '11'
(PID.TID 0000.0001)     ;
(PID.TID 0000.0001) PTRACERS_advScheme = /* Advection Scheme */
(PID.TID 0000.0001)                      33
(PID.TID 0000.0001)     ;
(PID.TID 0000.0001) PTRACERS_ImplVertAdv = /* implicit vert. advection flag */
(PID.TID 0000.0001)                   F
(PID.TID 0000.0001)     ;
(PID.TID 0000.0001) PTRACERS_diffKh = /* Laplacian Diffusivity */
(PID.TID 0000.0001)                 0.000000000000000E+00
(PID.TID 0000.0001)     ;
(PID.TID 0000.0001) PTRACERS_diffK4 = /* Biharmonic Diffusivity */
(PID.TID 0000.0001)                 0.000000000000000E+00
(PID.TID 0000.0001)     ;
(PID.TID 0000.0001) PTRACERS_diffKrNr = /* Vertical Diffusivity */
(PID.TID 0000.0001)    35 @  1.000000000000000E-05              /* K =  1: 35 */
(PID.TID 0000.0001)     ;
(PID.TID 0000.0001) PTRACERS_useGMRedi = /* apply GM-Redi */
(PID.TID 0000.0001)                   F
(PID.TID 0000.0001)     ;
(PID.TID 0000.0001) PTRACERS_useDWNSLP = /* apply DOWN-SLOPE Flow */
(PID.TID 0000.0001)                   F
(PID.TID 0000.0001)     ;
(PID.TID 0000.0001) PTRACERS_useKPP = /* apply KPP scheme */
(PID.TID 0000.0001)                   T
(PID.TID 0000.0001)     ;
(PID.TID 0000.0001) PTRACERS_ref = /* Reference vertical profile */
(PID.TID 0000.0001)    35 @  0.000000000000000E+00              /* K =  1: 35 */
(PID.TID 0000.0001)     ;
(PID.TID 0000.0001) PTRACERS_EvPrRn =/* tracer conc. in Evap. & Rain */
(PID.TID 0000.0001)                 1.234567000000000E+05
(PID.TID 0000.0001)     ;
(PID.TID 0000.0001)  -----------------------------------
(PID.TID 0000.0001)  tracer number :   12
(PID.TID 0000.0001) PTRACERS_names = /* Tracer short name */
(PID.TID 0000.0001)               'BIO_1_007'
(PID.TID 0000.0001)     ;
(PID.TID 0000.0001) PTRACERS_long_names = /* Tracer long name */
(PID.TID 0000.0001)               ''
(PID.TID 0000.0001)     ;
(PID.TID 0000.0001) PTRACERS_ioLabel = /* tracer IO Label */
(PID.TID 0000.0001)               '12'
(PID.TID 0000.0001)     ;
(PID.TID 0000.0001) PTRACERS_advScheme = /* Advection Scheme */
(PID.TID 0000.0001)                      33
(PID.TID 0000.0001)     ;
(PID.TID 0000.0001) PTRACERS_ImplVertAdv = /* implicit vert. advection flag */
(PID.TID 0000.0001)                   F
(PID.TID 0000.0001)     ;
(PID.TID 0000.0001) PTRACERS_diffKh = /* Laplacian Diffusivity */
(PID.TID 0000.0001)                 0.000000000000000E+00
(PID.TID 0000.0001)     ;
(PID.TID 0000.0001) PTRACERS_diffK4 = /* Biharmonic Diffusivity */
(PID.TID 0000.0001)                 0.000000000000000E+00
(PID.TID 0000.0001)     ;
(PID.TID 0000.0001) PTRACERS_diffKrNr = /* Vertical Diffusivity */
(PID.TID 0000.0001)    35 @  1.000000000000000E-05              /* K =  1: 35 */
(PID.TID 0000.0001)     ;
(PID.TID 0000.0001) PTRACERS_useGMRedi = /* apply GM-Redi */
(PID.TID 0000.0001)                   F
(PID.TID 0000.0001)     ;
(PID.TID 0000.0001) PTRACERS_useDWNSLP = /* apply DOWN-SLOPE Flow */
(PID.TID 0000.0001)                   F
(PID.TID 0000.0001)     ;
(PID.TID 0000.0001) PTRACERS_useKPP = /* apply KPP scheme */
(PID.TID 0000.0001)                   T
(PID.TID 0000.0001)     ;
(PID.TID 0000.0001) PTRACERS_ref = /* Reference vertical profile */
(PID.TID 0000.0001)    35 @  0.000000000000000E+00              /* K =  1: 35 */
(PID.TID 0000.0001)     ;
(PID.TID 0000.0001) PTRACERS_EvPrRn =/* tracer conc. in Evap. & Rain */
(PID.TID 0000.0001)                 1.234567000000000E+05
(PID.TID 0000.0001)     ;
(PID.TID 0000.0001)  -----------------------------------
(PID.TID 0000.0001)  tracer number :   13
(PID.TID 0000.0001) PTRACERS_names = /* Tracer short name */
(PID.TID 0000.0001)               'BIO_1_008'
(PID.TID 0000.0001)     ;
(PID.TID 0000.0001) PTRACERS_long_names = /* Tracer long name */
(PID.TID 0000.0001)               ''
(PID.TID 0000.0001)     ;
(PID.TID 0000.0001) PTRACERS_ioLabel = /* tracer IO Label */
(PID.TID 0000.0001)               '13'
(PID.TID 0000.0001)     ;
(PID.TID 0000.0001) PTRACERS_advScheme = /* Advection Scheme */
(PID.TID 0000.0001)                      33
(PID.TID 0000.0001)     ;
(PID.TID 0000.0001) PTRACERS_ImplVertAdv = /* implicit vert. advection flag */
(PID.TID 0000.0001)                   F
(PID.TID 0000.0001)     ;
(PID.TID 0000.0001) PTRACERS_diffKh = /* Laplacian Diffusivity */
(PID.TID 0000.0001)                 0.000000000000000E+00
(PID.TID 0000.0001)     ;
(PID.TID 0000.0001) PTRACERS_diffK4 = /* Biharmonic Diffusivity */
(PID.TID 0000.0001)                 0.000000000000000E+00
(PID.TID 0000.0001)     ;
(PID.TID 0000.0001) PTRACERS_diffKrNr = /* Vertical Diffusivity */
(PID.TID 0000.0001)    35 @  1.000000000000000E-05              /* K =  1: 35 */
(PID.TID 0000.0001)     ;
(PID.TID 0000.0001) PTRACERS_useGMRedi = /* apply GM-Redi */
(PID.TID 0000.0001)                   F
(PID.TID 0000.0001)     ;
(PID.TID 0000.0001) PTRACERS_useDWNSLP = /* apply DOWN-SLOPE Flow */
(PID.TID 0000.0001)                   F
(PID.TID 0000.0001)     ;
(PID.TID 0000.0001) PTRACERS_useKPP = /* apply KPP scheme */
(PID.TID 0000.0001)                   T
(PID.TID 0000.0001)     ;
(PID.TID 0000.0001) PTRACERS_ref = /* Reference vertical profile */
(PID.TID 0000.0001)    35 @  0.000000000000000E+00              /* K =  1: 35 */
(PID.TID 0000.0001)     ;
(PID.TID 0000.0001) PTRACERS_EvPrRn =/* tracer conc. in Evap. & Rain */
(PID.TID 0000.0001)                 1.234567000000000E+05
(PID.TID 0000.0001)     ;
(PID.TID 0000.0001)  -----------------------------------
(PID.TID 0000.0001)  tracer number :   14
(PID.TID 0000.0001) PTRACERS_names = /* Tracer short name */
(PID.TID 0000.0001)               'BIO_1_009'
(PID.TID 0000.0001)     ;
(PID.TID 0000.0001) PTRACERS_long_names = /* Tracer long name */
(PID.TID 0000.0001)               ''
(PID.TID 0000.0001)     ;
(PID.TID 0000.0001) PTRACERS_ioLabel = /* tracer IO Label */
(PID.TID 0000.0001)               '14'
(PID.TID 0000.0001)     ;
(PID.TID 0000.0001) PTRACERS_advScheme = /* Advection Scheme */
(PID.TID 0000.0001)                      33
(PID.TID 0000.0001)     ;
(PID.TID 0000.0001) PTRACERS_ImplVertAdv = /* implicit vert. advection flag */
(PID.TID 0000.0001)                   F
(PID.TID 0000.0001)     ;
(PID.TID 0000.0001) PTRACERS_diffKh = /* Laplacian Diffusivity */
(PID.TID 0000.0001)                 0.000000000000000E+00
(PID.TID 0000.0001)     ;
(PID.TID 0000.0001) PTRACERS_diffK4 = /* Biharmonic Diffusivity */
(PID.TID 0000.0001)                 0.000000000000000E+00
[...]
(PID.TID 0000.0001) %MON trcstat_ptracer48_min        =   2.9840866242601E-14
(PID.TID 0000.0001) %MON trcstat_ptracer48_mean       =   3.1262962987108E-14
(PID.TID 0000.0001) %MON trcstat_ptracer48_sd         =   9.2686746859975E-16
(PID.TID 0000.0001) %MON trcstat_ptracer48_del2       =   0.0000000000000E+00
(PID.TID 0000.0001) %MON trcstat_ptracer49_max        =   3.1901316255604E-14
(PID.TID 0000.0001) %MON trcstat_ptracer49_min        =   2.9840867068702E-14
(PID.TID 0000.0001) %MON trcstat_ptracer49_mean       =   3.0959118824466E-14
(PID.TID 0000.0001) %MON trcstat_ptracer49_sd         =   7.2812778915034E-16
(PID.TID 0000.0001) %MON trcstat_ptracer49_del2       =   0.0000000000000E+00
(PID.TID 0000.0001) %MON trcstat_ptracer50_max        =   3.1440699598356E-14
(PID.TID 0000.0001) %MON trcstat_ptracer50_min        =   2.9840867473219E-14
(PID.TID 0000.0001) %MON trcstat_ptracer50_mean       =   3.0712762464317E-14
(PID.TID 0000.0001) %MON trcstat_ptracer50_sd         =   5.6645754477888E-16
(PID.TID 0000.0001) %MON trcstat_ptracer50_del2       =   0.0000000000000E+00
(PID.TID 0000.0001) %MON trcstat_ptracer51_max        =   3.1068698491412E-14
(PID.TID 0000.0001) %MON trcstat_ptracer51_min        =   2.9840867261622E-14
(PID.TID 0000.0001) %MON trcstat_ptracer51_mean       =   3.0514523172974E-14
(PID.TID 0000.0001) %MON trcstat_ptracer51_sd         =   4.3581146648590E-16
(PID.TID 0000.0001) %MON trcstat_ptracer51_del2       =   0.0000000000000E+00
(PID.TID 0000.0001) %MON trcstat_ptracer52_max        =   3.0770763864300E-14
(PID.TID 0000.0001) %MON trcstat_ptracer52_min        =   2.9840866362848E-14
(PID.TID 0000.0001) %MON trcstat_ptracer52_mean       =   3.0356318517570E-14
(PID.TID 0000.0001) %MON trcstat_ptracer52_sd         =   3.3101881278949E-16
(PID.TID 0000.0001) %MON trcstat_ptracer52_del2       =   0.0000000000000E+00
(PID.TID 0000.0001) %MON trcstat_ptracer53_max        =   2.9920260126778E-14
(PID.TID 0000.0001) %MON trcstat_ptracer53_min        =   2.9884434494320E-14
(PID.TID 0000.0001) %MON trcstat_ptracer53_mean       =   2.9915287877490E-14
(PID.TID 0000.0001) %MON trcstat_ptracer53_sd         =   9.8062449592979E-18
(PID.TID 0000.0001) %MON trcstat_ptracer53_del2       =   0.0000000000000E+00
(PID.TID 0000.0001) %MON trcstat_ptracer54_max        =   1.5157365924696E-09
(PID.TID 0000.0001) %MON trcstat_ptracer54_min        =   9.9240840007241E-10
(PID.TID 0000.0001) %MON trcstat_ptracer54_mean       =   1.0087521954892E-09
(PID.TID 0000.0001) %MON trcstat_ptracer54_sd         =   7.7261667598550E-11
(PID.TID 0000.0001) %MON trcstat_ptracer54_del2       =   0.0000000000000E+00
(PID.TID 0000.0001) %MON trcstat_ptracer55_max        =   1.4336147174851E-09
(PID.TID 0000.0001) %MON trcstat_ptracer55_min        =   9.9240859047045E-10
(PID.TID 0000.0001) %MON trcstat_ptracer55_mean       =   1.0065333043290E-09
(PID.TID 0000.0001) %MON trcstat_ptracer55_sd         =   6.5202098157289E-11
(PID.TID 0000.0001) %MON trcstat_ptracer55_del2       =   0.0000000000000E+00
(PID.TID 0000.0001) %MON trcstat_ptracer56_max        =   2.6286099293095E-09
(PID.TID 0000.0001) %MON trcstat_ptracer56_min        =   9.9241457290902E-10
(PID.TID 0000.0001) %MON trcstat_ptracer56_mean       =   1.0453030230889E-09
(PID.TID 0000.0001) %MON trcstat_ptracer56_sd         =   2.7039540567265E-10
(PID.TID 0000.0001) %MON trcstat_ptracer56_del2       =   0.0000000000000E+00
(PID.TID 0000.0001) %MON trcstat_ptracer57_max        =   2.4192980934730E-09
(PID.TID 0000.0001) %MON trcstat_ptracer57_min        =   9.9241520380209E-10
(PID.TID 0000.0001) %MON trcstat_ptracer57_mean       =   1.0387627705805E-09
(PID.TID 0000.0001) %MON trcstat_ptracer57_sd         =   2.3562359141582E-10
(PID.TID 0000.0001) %MON trcstat_ptracer57_del2       =   0.0000000000000E+00
(PID.TID 0000.0001) %MON trcstat_ptracer58_max        =   2.1070129790760E-09
(PID.TID 0000.0001) %MON trcstat_ptracer58_min        =   9.9241430489566E-10
(PID.TID 0000.0001) %MON trcstat_ptracer58_mean       =   1.0297108391186E-09
(PID.TID 0000.0001) %MON trcstat_ptracer58_sd         =   1.8734693502587E-10
(PID.TID 0000.0001) %MON trcstat_ptracer58_del2       =   0.0000000000000E+00
(PID.TID 0000.0001) %MON trcstat_ptracer59_max        =   1.8558852487599E-09
(PID.TID 0000.0001) %MON trcstat_ptracer59_min        =   9.9241365206889E-10
(PID.TID 0000.0001) %MON trcstat_ptracer59_mean       =   1.0229745333363E-09
(PID.TID 0000.0001) %MON trcstat_ptracer59_sd         =   1.5134929090215E-10
(PID.TID 0000.0001) %MON trcstat_ptracer59_del2       =   0.0000000000000E+00
(PID.TID 0000.0001) %MON trcstat_ptracer60_max        =   1.6525259442002E-09
(PID.TID 0000.0001) %MON trcstat_ptracer60_min        =   9.9241318877679E-10
(PID.TID 0000.0001) %MON trcstat_ptracer60_mean       =   1.0163290345556E-09
(PID.TID 0000.0001) %MON trcstat_ptracer60_sd         =   1.1607898622321E-10
(PID.TID 0000.0001) %MON trcstat_ptracer60_del2       =   0.0000000000000E+00
(PID.TID 0000.0001) %MON trcstat_ptracer61_max        =   1.4920195879264E-09
(PID.TID 0000.0001) %MON trcstat_ptracer61_min        =   9.9241290083882E-10
(PID.TID 0000.0001) %MON trcstat_ptracer61_mean       =   1.0110417908056E-09
(PID.TID 0000.0001) %MON trcstat_ptracer61_sd         =   8.8016155632778E-11
(PID.TID 0000.0001) %MON trcstat_ptracer61_del2       =   0.0000000000000E+00
(PID.TID 0000.0001) %MON trcstat_ptracer62_max        =   1.3662599522817E-09
(PID.TID 0000.0001) %MON trcstat_ptracer62_min        =   9.9241275988619E-10
(PID.TID 0000.0001) %MON trcstat_ptracer62_mean       =   1.0068753964981E-09
(PID.TID 0000.0001) %MON trcstat_ptracer62_sd         =   6.5897197173554E-11
(PID.TID 0000.0001) %MON trcstat_ptracer62_del2       =   0.0000000000000E+00
(PID.TID 0000.0001) %MON trcstat_ptracer63_max        =   1.2687205769689E-09
(PID.TID 0000.0001) %MON trcstat_ptracer63_min        =   9.9241274229364E-10
(PID.TID 0000.0001) %MON trcstat_ptracer63_mean       =   1.0037432824807E-09
(PID.TID 0000.0001) %MON trcstat_ptracer63_sd         =   4.9252417857488E-11
(PID.TID 0000.0001) %MON trcstat_ptracer63_del2       =   0.0000000000000E+00
(PID.TID 0000.0001) %MON trcstat_ptracer64_max        =   1.1926129452090E-09
(PID.TID 0000.0001) %MON trcstat_ptracer64_min        =   9.9241280946139E-10
(PID.TID 0000.0001) %MON trcstat_ptracer64_mean       =   1.0011665150018E-09
(PID.TID 0000.0001) %MON trcstat_ptracer64_sd         =   3.5556258389067E-11
(PID.TID 0000.0001) %MON trcstat_ptracer64_del2       =   0.0000000000000E+00
(PID.TID 0000.0001) %MON trcstat_ptracer65_max        =   1.1339076687939E-09
(PID.TID 0000.0001) %MON trcstat_ptracer65_min        =   9.9241291887872E-10
(PID.TID 0000.0001) %MON trcstat_ptracer65_mean       =   9.9917606318409E-10
(PID.TID 0000.0001) %MON trcstat_ptracer65_sd         =   2.4960019361543E-11
(PID.TID 0000.0001) %MON trcstat_ptracer65_del2       =   0.0000000000000E+00
(PID.TID 0000.0001) %MON trcstat_ptracer66_max        =   1.0888861138098E-09
(PID.TID 0000.0001) %MON trcstat_ptracer66_min        =   9.9241299474307E-10
(PID.TID 0000.0001) %MON trcstat_ptracer66_mean       =   9.9764789537689E-10
(PID.TID 0000.0001) %MON trcstat_ptracer66_sd         =   1.6803872812027E-11
(PID.TID 0000.0001) %MON trcstat_ptracer66_del2       =   0.0000000000000E+00
(PID.TID 0000.0001) %MON trcstat_ptracer67_max        =   1.0546147118674E-09
(PID.TID 0000.0001) %MON trcstat_ptracer67_min        =   9.9241290782849E-10
(PID.TID 0000.0001) %MON trcstat_ptracer67_mean       =   9.9648369271410E-10
(PID.TID 0000.0001) %MON trcstat_ptracer67_sd         =   1.0565523094854E-11
(PID.TID 0000.0001) %MON trcstat_ptracer67_del2       =   0.0000000000000E+00
(PID.TID 0000.0001) %MON trcstat_ptracer68_max        =   1.0287880780136E-09
(PID.TID 0000.0001) %MON trcstat_ptracer68_min        =   9.9241243885852E-10
(PID.TID 0000.0001) %MON trcstat_ptracer68_mean       =   9.9560590977653E-10
(PID.TID 0000.0001) %MON trcstat_ptracer68_sd         =   5.8402731910615E-12
(PID.TID 0000.0001) %MON trcstat_ptracer68_del2       =   0.0000000000000E+00
(PID.TID 0000.0001) %MON trcstat_ptracer69_max        =   0.0000000000000E+00
(PID.TID 0000.0001) %MON trcstat_ptracer69_min        =   0.0000000000000E+00
(PID.TID 0000.0001) %MON trcstat_ptracer69_mean       =   0.0000000000000E+00
(PID.TID 0000.0001) %MON trcstat_ptracer69_sd         =   0.0000000000000E+00
(PID.TID 0000.0001) %MON trcstat_ptracer69_del2       =   0.0000000000000E+00
(PID.TID 0000.0001) %MON trcstat_ptracer70_max        =   4.0134824156150E-10
(PID.TID 0000.0001) %MON trcstat_ptracer70_min        =   2.8214725430298E-10
(PID.TID 0000.0001) %MON trcstat_ptracer70_mean       =   2.9866267370071E-10
(PID.TID 0000.0001) %MON trcstat_ptracer70_sd         =   3.2476504049715E-11
(PID.TID 0000.0001) %MON trcstat_ptracer70_del2       =   0.0000000000000E+00
(PID.TID 0000.0001) %MON trcstat_ptracer71_max        =   3.6660816986678E-10
(PID.TID 0000.0001) %MON trcstat_ptracer71_min        =   2.5567262986280E-10
(PID.TID 0000.0001) %MON trcstat_ptracer71_mean       =   2.7127167982059E-10
(PID.TID 0000.0001) %MON trcstat_ptracer71_sd         =   3.0178938238429E-11
(PID.TID 0000.0001) %MON trcstat_ptracer71_del2       =   0.0000000000000E+00
(PID.TID 0000.0001) %MON trcstat_ptracer72_max        =   2.7225254086935E-01
(PID.TID 0000.0001) %MON trcstat_ptracer72_min        =   2.3753200748088E-11
(PID.TID 0000.0001) %MON trcstat_ptracer72_mean       =   3.3019373126569E-02
(PID.TID 0000.0001) %MON trcstat_ptracer72_sd         =   8.3556184692339E-02
(PID.TID 0000.0001) %MON trcstat_ptracer72_del2       =   0.0000000000000E+00
(PID.TID 0000.0001) %MON trcstat_ptracer73_max        =   3.0250111450161E-02
(PID.TID 0000.0001) %MON trcstat_ptracer73_min        =   7.1592935196050E-07
(PID.TID 0000.0001) %MON trcstat_ptracer73_mean       =   1.4905722032375E-02
(PID.TID 0000.0001) %MON trcstat_ptracer73_sd         =   1.1063283954021E-02
(PID.TID 0000.0001) %MON trcstat_ptracer73_del2       =   0.0000000000000E+00
(PID.TID 0000.0001) %MON trcstat_ptracer74_max        =   1.7015784198646E-05
(PID.TID 0000.0001) %MON trcstat_ptracer74_min        =   1.3008552029891E-15
(PID.TID 0000.0001) %MON trcstat_ptracer74_mean       =   2.0637108190874E-06
(PID.TID 0000.0001) %MON trcstat_ptracer74_sd         =   5.2222615388249E-06
(PID.TID 0000.0001) %MON trcstat_ptracer74_del2       =   0.0000000000000E+00
(PID.TID 0000.0001) %MON trcstat_ptracer75_max        =   1.8906320384485E-06
(PID.TID 0000.0001) %MON trcstat_ptracer75_min        =   4.4745479860816E-11
(PID.TID 0000.0001) %MON trcstat_ptracer75_mean       =   9.3160763490258E-07
(PID.TID 0000.0001) %MON trcstat_ptracer75_sd         =   6.9145527241025E-07
(PID.TID 0000.0001) %MON trcstat_ptracer75_del2       =   0.0000000000000E+00
(PID.TID 0000.0001) // =======================================================
(PID.TID 0000.0001) // End MONITOR ptracers field statistics
(PID.TID 0000.0001) // =======================================================
(PID.TID 0000.0001) %CHECKPOINT         4 ckptA
(PID.TID 0000.0001)   Seconds in section "ALL                    [THE_MODEL_MAIN]":
(PID.TID 0000.0001)           User time:   1.5800000000000001
(PID.TID 0000.0001)         System time:  0.11000000000000000
(PID.TID 0000.0001)     Wall clock time:   3.7220430374145508
(PID.TID 0000.0001)          No. starts:           1
(PID.TID 0000.0001)           No. stops:           1
(PID.TID 0000.0001)   Seconds in section "INITIALISE_FIXED       [THE_MODEL_MAIN]":
(PID.TID 0000.0001)           User time:  0.88000000000000000
(PID.TID 0000.0001)         System time:  5.99999999999999978E-002
(PID.TID 0000.0001)     Wall clock time:   1.6567039489746094
(PID.TID 0000.0001)          No. starts:           1
(PID.TID 0000.0001)           No. stops:           1
(PID.TID 0000.0001)   Seconds in section "THE_MAIN_LOOP          [THE_MODEL_MAIN]":
(PID.TID 0000.0001)           User time:  0.70000000000000007
(PID.TID 0000.0001)         System time:  5.00000000000000028E-002
(PID.TID 0000.0001)     Wall clock time:   2.0633509159088135
(PID.TID 0000.0001)          No. starts:           1
(PID.TID 0000.0001)           No. stops:           1
(PID.TID 0000.0001)   Seconds in section "INITIALISE_VARIA    [THE_MAIN_LOOP]":
(PID.TID 0000.0001)           User time:  8.99999999999999689E-002
(PID.TID 0000.0001)         System time:  2.99999999999999989E-002
(PID.TID 0000.0001)     Wall clock time:   1.1816449165344238
(PID.TID 0000.0001)          No. starts:           1
(PID.TID 0000.0001)           No. stops:           1
(PID.TID 0000.0001)   Seconds in section "MAIN LOOP           [THE_MAIN_LOOP]":
(PID.TID 0000.0001)           User time:  0.61000000000000010
(PID.TID 0000.0001)         System time:  2.00000000000000039E-002
(PID.TID 0000.0001)     Wall clock time:  0.88165307044982910
(PID.TID 0000.0001)          No. starts:           1
(PID.TID 0000.0001)           No. stops:           1
(PID.TID 0000.0001)   Seconds in section "FORWARD_STEP        [THE_MAIN_LOOP]":
(PID.TID 0000.0001)           User time:  0.61000000000000010
(PID.TID 0000.0001)         System time:  2.00000000000000039E-002
(PID.TID 0000.0001)     Wall clock time:  0.88158607482910156
(PID.TID 0000.0001)          No. starts:           4
(PID.TID 0000.0001)           No. stops:           4
(PID.TID 0000.0001)   Seconds in section "LOAD_FIELDS_DRIVER  [FORWARD_STEP]":
(PID.TID 0000.0001)           User time:   0.0000000000000000
(PID.TID 0000.0001)         System time:   0.0000000000000000
(PID.TID 0000.0001)     Wall clock time:  1.44815444946289063E-003
(PID.TID 0000.0001)          No. starts:           4
(PID.TID 0000.0001)           No. stops:           4
(PID.TID 0000.0001)   Seconds in section "EXTERNAL_FLDS_LOAD [LOAD_FLDS_DRIVER]":
(PID.TID 0000.0001)           User time:   0.0000000000000000
(PID.TID 0000.0001)         System time:   0.0000000000000000
(PID.TID 0000.0001)     Wall clock time:  8.57114791870117188E-004
(PID.TID 0000.0001)          No. starts:           4
(PID.TID 0000.0001)           No. stops:           4
(PID.TID 0000.0001)   Seconds in section "DO_ATMOSPHERIC_PHYS [FORWARD_STEP]":
(PID.TID 0000.0001)           User time:   0.0000000000000000
(PID.TID 0000.0001)         System time:   0.0000000000000000
(PID.TID 0000.0001)     Wall clock time:  5.88893890380859375E-005
(PID.TID 0000.0001)          No. starts:           4
(PID.TID 0000.0001)           No. stops:           4
(PID.TID 0000.0001)   Seconds in section "DO_OCEANIC_PHYS     [FORWARD_STEP]":
(PID.TID 0000.0001)           User time:  2.00000000000000178E-002
(PID.TID 0000.0001)         System time:   0.0000000000000000
(PID.TID 0000.0001)     Wall clock time:  1.61871910095214844E-002
(PID.TID 0000.0001)          No. starts:           4
(PID.TID 0000.0001)           No. stops:           4
(PID.TID 0000.0001)   Seconds in section "KPP_CALC [DO_OCEANIC_PHYS]":
(PID.TID 0000.0001)           User time:  2.00000000000000178E-002
(PID.TID 0000.0001)         System time:   0.0000000000000000
(PID.TID 0000.0001)     Wall clock time:  1.44720077514648438E-002
(PID.TID 0000.0001)          No. starts:           4
(PID.TID 0000.0001)           No. stops:           4
(PID.TID 0000.0001)   Seconds in section "GCHEM_CALC_TENDENCY [FORWARD_STEP]":
(PID.TID 0000.0001)           User time:   0.0000000000000000
(PID.TID 0000.0001)         System time:   0.0000000000000000
(PID.TID 0000.0001)     Wall clock time:  5.12599945068359375E-005
(PID.TID 0000.0001)          No. starts:           4
(PID.TID 0000.0001)           No. stops:           4
(PID.TID 0000.0001)   Seconds in section "THERMODYNAMICS      [FORWARD_STEP]":
(PID.TID 0000.0001)           User time:  0.39999999999999991
(PID.TID 0000.0001)         System time:   0.0000000000000000
(PID.TID 0000.0001)     Wall clock time:  0.40315699577331543
(PID.TID 0000.0001)          No. starts:           4
(PID.TID 0000.0001)           No. stops:           4
(PID.TID 0000.0001)   Seconds in section "TRC_CORRECTION_STEP [FORWARD_STEP]":
(PID.TID 0000.0001)           User time:  1.00000000000000089E-002
(PID.TID 0000.0001)         System time:   0.0000000000000000
(PID.TID 0000.0001)     Wall clock time:  6.81829452514648438E-003
(PID.TID 0000.0001)          No. starts:           4
(PID.TID 0000.0001)           No. stops:           4
(PID.TID 0000.0001)   Seconds in section "GCHEM_FORCING_SEP  [FORWARD_STEP]":
(PID.TID 0000.0001)           User time:  5.00000000000000444E-002
(PID.TID 0000.0001)         System time:   0.0000000000000000
(PID.TID 0000.0001)     Wall clock time:  5.67660331726074219E-002
(PID.TID 0000.0001)          No. starts:           4
(PID.TID 0000.0001)           No. stops:           4
(PID.TID 0000.0001)   Seconds in section "BLOCKING_EXCHANGES  [FORWARD_STEP]":
(PID.TID 0000.0001)           User time:  3.00000000000000266E-002
(PID.TID 0000.0001)         System time:   0.0000000000000000
(PID.TID 0000.0001)     Wall clock time:  2.91681289672851563E-002
(PID.TID 0000.0001)          No. starts:           4
(PID.TID 0000.0001)           No. stops:           4
(PID.TID 0000.0001)   Seconds in section "DO_STATEVARS_TAVE   [FORWARD_STEP]":
(PID.TID 0000.0001)           User time:   0.0000000000000000
(PID.TID 0000.0001)         System time:   0.0000000000000000
(PID.TID 0000.0001)     Wall clock time:  9.68933105468750000E-004
(PID.TID 0000.0001)          No. starts:           4
(PID.TID 0000.0001)           No. stops:           4
(PID.TID 0000.0001)   Seconds in section "MONITOR             [FORWARD_STEP]":
(PID.TID 0000.0001)           User time:   0.0000000000000000
(PID.TID 0000.0001)         System time:   0.0000000000000000
(PID.TID 0000.0001)     Wall clock time:  4.94909286499023438E-003
(PID.TID 0000.0001)          No. starts:           4
(PID.TID 0000.0001)           No. stops:           4
(PID.TID 0000.0001)   Seconds in section "DO_THE_MODEL_IO     [FORWARD_STEP]":
(PID.TID 0000.0001)           User time:  0.10000000000000009
(PID.TID 0000.0001)         System time:  1.00000000000000089E-002
(PID.TID 0000.0001)     Wall clock time:  0.35374593734741211
(PID.TID 0000.0001)          No. starts:           4
(PID.TID 0000.0001)           No. stops:           4
(PID.TID 0000.0001)   Seconds in section "DO_WRITE_PICKUP     [FORWARD_STEP]":
(PID.TID 0000.0001)           User time:   0.0000000000000000
(PID.TID 0000.0001)         System time:  9.99999999999999500E-003
(PID.TID 0000.0001)     Wall clock time:  7.57789611816406250E-003
(PID.TID 0000.0001)          No. starts:           4
(PID.TID 0000.0001)           No. stops:           4
(PID.TID 0000.0001) // ======================================================
(PID.TID 0000.0001) // Tile <-> Tile communication statistics
(PID.TID 0000.0001) // ======================================================
(PID.TID 0000.0001) // o Tile number: 000001
(PID.TID 0000.0001) //         No. X exchanges =              0
(PID.TID 0000.0001) //            Max. X spins =              0
(PID.TID 0000.0001) //            Min. X spins =     1000000000
(PID.TID 0000.0001) //          Total. X spins =              0
(PID.TID 0000.0001) //            Avg. X spins =       0.00E+00
(PID.TID 0000.0001) //         No. Y exchanges =              0
(PID.TID 0000.0001) //            Max. Y spins =              0
(PID.TID 0000.0001) //            Min. Y spins =     1000000000
(PID.TID 0000.0001) //          Total. Y spins =              0
(PID.TID 0000.0001) //            Avg. Y spins =       0.00E+00
(PID.TID 0000.0001) // o Thread number: 000001
(PID.TID 0000.0001) //            No. barriers =          16866
(PID.TID 0000.0001) //      Max. barrier spins =              1
(PID.TID 0000.0001) //      Min. barrier spins =              1
(PID.TID 0000.0001) //     Total barrier spins =          16866
(PID.TID 0000.0001) //      Avg. barrier spins =       1.00E+00
PROGRAM MAIN: Execution ended Normally
