(PID.TID 0000.0001) 
(PID.TID 0000.0001) // ======================================================
(PID.TID 0000.0001) //                      MITgcm UV
(PID.TID 0000.0001) //                      =========
(PID.TID 0000.0001) // ======================================================
(PID.TID 0000.0001) // execution environment starting up...
(PID.TID 0000.0001) 
(PID.TID 0000.0001) // Build user:        jahn
(PID.TID 0000.0001) // Build host:        saramago.mit.edu
(PID.TID 0000.0001) // Build date:        Thu Nov 14 15:21:06 EST 2013
(PID.TID 0000.0001) 
(PID.TID 0000.0001) // =======================================================
(PID.TID 0000.0001) // Execution Environment parameter file "eedata"
(PID.TID 0000.0001) // =======================================================
(PID.TID 0000.0001) ># Example "eedata" file
(PID.TID 0000.0001) ># Lines beginning "#" are comments
(PID.TID 0000.0001) ># nTx - No. threads per process in X
(PID.TID 0000.0001) ># nTy - No. threads per process in Y
(PID.TID 0000.0001) > &EEPARMS
(PID.TID 0000.0001) > nTx=1,nTy=1
(PID.TID 0000.0001) > /
(PID.TID 0000.0001) ># Note: Some systems use & as the
(PID.TID 0000.0001) ># namelist terminator. Other systems
(PID.TID 0000.0001) ># use a / character (as shown here).
(PID.TID 0000.0001) 
(PID.TID 0000.0001) // =======================================================
(PID.TID 0000.0001) // Computational Grid Specification ( see files "SIZE.h" )
(PID.TID 0000.0001) //                                  ( and "eedata"       )
(PID.TID 0000.0001) // =======================================================
(PID.TID 0000.0001)      nPx =    1 ; /* No. processes in X */
(PID.TID 0000.0001)      nPy =    1 ; /* No. processes in Y */
(PID.TID 0000.0001)      nSx =    2 ; /* No. tiles in X per process */
(PID.TID 0000.0001)      nSy =    1 ; /* No. tiles in Y per process */
(PID.TID 0000.0001)      sNx =   64 ; /* Tile size in X */
(PID.TID 0000.0001)      sNy =   64 ; /* Tile size in Y */
(PID.TID 0000.0001)      OLx =    4 ; /* Tile overlap distance in X */
(PID.TID 0000.0001)      OLy =    4 ; /* Tile overlap distance in Y */
(PID.TID 0000.0001)      nTx =    1 ; /* No. threads in X per process */
(PID.TID 0000.0001)      nTy =    1 ; /* No. threads in Y per process */
(PID.TID 0000.0001)       Nr =   15 ; /* No. levels in the vertical   */
(PID.TID 0000.0001)       Nx =  128 ; /* Total domain size in X ( = nPx*nSx*sNx ) */
(PID.TID 0000.0001)       Ny =   64 ; /* Total domain size in Y ( = nPy*nSy*sNy ) */
(PID.TID 0000.0001)   nTiles =    2 ; /* Total no. tiles per process ( = nSx*nSy ) */
(PID.TID 0000.0001)   nProcs =    1 ; /* Total no. processes ( = nPx*nPy ) */
(PID.TID 0000.0001) nThreads =    1 ; /* Total no. threads per process ( = nTx*nTy ) */
(PID.TID 0000.0001) usingMPI =    F ; /* Flag used to control whether MPI is in use */
(PID.TID 0000.0001)                   /*  note: To execute a program with MPI calls */
(PID.TID 0000.0001)                   /*  it must be launched appropriately e.g     */
(PID.TID 0000.0001)                   /*  "mpirun -np 64 ......"                    */
(PID.TID 0000.0001) useCoupler=    F ;/* Flag used to control communications with   */
(PID.TID 0000.0001)                   /*  other model components, through a coupler */
(PID.TID 0000.0001) debugMode =    F ; /* print debug msg. (sequence of S/R calls)  */
(PID.TID 0000.0001) printMapIncludesZeros=    F ; /* print zeros in Std.Output maps */
(PID.TID 0000.0001) maxLengthPrt1D=   65 /* maxLength of 1D array printed to StdOut */
(PID.TID 0000.0001) 
(PID.TID 0000.0001) // ======================================================
(PID.TID 0000.0001) // Mapping of tiles to threads
(PID.TID 0000.0001) // ======================================================
(PID.TID 0000.0001) // -o- Thread   1, tiles (   1:   2,   1:   1)
(PID.TID 0000.0001) 
(PID.TID 0000.0001) // ======================================================
(PID.TID 0000.0001) // Tile <-> Tile connectvity table
(PID.TID 0000.0001) // ======================================================
(PID.TID 0000.0001) // Tile number: 000001 (process no. = 000001)
(PID.TID 0000.0001) //        WEST: Tile = 000002, Process = 000001, Comm = put
(PID.TID 0000.0001) //                bi = 000002, bj = 000001
(PID.TID 0000.0001) //        EAST: Tile = 000002, Process = 000001, Comm = put
(PID.TID 0000.0001) //                bi = 000002, bj = 000001
(PID.TID 0000.0001) //       SOUTH: Tile = 000001, Process = 000001, Comm = put
(PID.TID 0000.0001) //                bi = 000001, bj = 000001
(PID.TID 0000.0001) //       NORTH: Tile = 000001, Process = 000001, Comm = put
(PID.TID 0000.0001) //                bi = 000001, bj = 000001
(PID.TID 0000.0001) // Tile number: 000002 (process no. = 000001)
(PID.TID 0000.0001) //        WEST: Tile = 000001, Process = 000001, Comm = put
(PID.TID 0000.0001) //                bi = 000001, bj = 000001
(PID.TID 0000.0001) //        EAST: Tile = 000001, Process = 000001, Comm = put
(PID.TID 0000.0001) //                bi = 000001, bj = 000001
(PID.TID 0000.0001) //       SOUTH: Tile = 000002, Process = 000001, Comm = put
(PID.TID 0000.0001) //                bi = 000002, bj = 000001
(PID.TID 0000.0001) //       NORTH: Tile = 000002, Process = 000001, Comm = put
(PID.TID 0000.0001) //                bi = 000002, bj = 000001
(PID.TID 0000.0001) 
(PID.TID 0000.0001)  INI_PARMS: opening model parameter file "data"
(PID.TID 0000.0001)  OPEN_COPY_DATA_FILE: opening file data
(PID.TID 0000.0001) // =======================================================
(PID.TID 0000.0001) // Parameter file "data"
(PID.TID 0000.0001) // =======================================================
(PID.TID 0000.0001) ># ====================
(PID.TID 0000.0001) ># | Model parameters |
(PID.TID 0000.0001) ># ====================
(PID.TID 0000.0001) >#
(PID.TID 0000.0001) ># Continuous equation parameters
(PID.TID 0000.0001) > &PARM01
(PID.TID 0000.0001) > tRef=15*20.,
(PID.TID 0000.0001) > sRef=15*35.,
(PID.TID 0000.0001) > viscA4=0.,
(PID.TID 0000.0001) > viscAh=5.E5,
(PID.TID 0000.0001) > diffKhT=0.E3,
(PID.TID 0000.0001) > diffKhS=0.E3,
(PID.TID 0000.0001) > viscAz=1.E-3,
(PID.TID 0000.0001) > diffKzT=5.E-5,
(PID.TID 0000.0001) > diffKzS=5.E-5,
(PID.TID 0000.0001) > beta=1.E-11,
(PID.TID 0000.0001) > f0=1.e-4,
(PID.TID 0000.0001) > tAlpha=2.E-4,
(PID.TID 0000.0001) > sBeta =7.4E-4,
(PID.TID 0000.0001) > gravity=9.81,
(PID.TID 0000.0001) > gBaro=9.81,
(PID.TID 0000.0001) > rhonil=1035.,
(PID.TID 0000.0001) > rigidLid=.FALSE.,
(PID.TID 0000.0001) > implicitFreeSurface=.TRUE.,
(PID.TID 0000.0001) > eosType='POLY3',
(PID.TID 0000.0001) > implicitDiffusion=.TRUE.,
(PID.TID 0000.0001) > implicitViscosity=.TRUE.,
(PID.TID 0000.0001) > ivdc_kappa=100.,
(PID.TID 0000.0001) > tempAdvScheme       = 2
(PID.TID 0000.0001) > saltAdvScheme       = 2
(PID.TID 0000.0001) > tempStepping        = .TRUE.
(PID.TID 0000.0001) > saltStepping        = .TRUE.
(PID.TID 0000.0001) > multiDimAdvection   = .FALSE.
(PID.TID 0000.0001) > allowFreezing=.TRUE.,
(PID.TID 0000.0001) > useCDscheme=.TRUE.,
(PID.TID 0000.0001) >#usePickupBeforeC54=.TRUE.,
(PID.TID 0000.0001) > /
(PID.TID 0000.0001) >
(PID.TID 0000.0001) ># Elliptic solver parameters
(PID.TID 0000.0001) > &PARM02
(PID.TID 0000.0001) > cg2dMaxIters=1000,
(PID.TID 0000.0001) > cg2dTargetResidual=1.E-13,
(PID.TID 0000.0001) > /
(PID.TID 0000.0001) >
(PID.TID 0000.0001) ># Time stepping parameters
(PID.TID 0000.0001) > &PARM03
(PID.TID 0000.0001) > nIter0=5644800,
(PID.TID 0000.0001) > nTimeSteps = 4,
(PID.TID 0000.0001) >#nTimeSteps = 7200,
(PID.TID 0000.0001) > deltaTmom = 900.0,
(PID.TID 0000.0001) > tauCD =     321428.,
(PID.TID 0000.0001) > deltaTtracer= 43200.0,
(PID.TID 0000.0001) > deltaTClock = 43200.0,
(PID.TID 0000.0001) > abEps = 0.1,
(PID.TID 0000.0001) > pickupStrictlyMatch=.FALSE.,
(PID.TID 0000.0001) > pChkptFreq=311040000.,
(PID.TID 0000.0001) > chkptFreq= 311040000.,
(PID.TID 0000.0001) > dumpFreq=  31104000.,
(PID.TID 0000.0001) > taveFreq=  2592000.,
(PID.TID 0000.0001) >#taveFreq=  31104000.,
(PID.TID 0000.0001) >#monitorFreq= 31104000.,
(PID.TID 0000.0001) > monitorFreq= 43200.0,
(PID.TID 0000.0001) >#monitorFreq= 2592000.,
(PID.TID 0000.0001) > tauThetaClimRelax = 5184000.0,
(PID.TID 0000.0001) > tauSaltClimRelax =  7776000.0,
(PID.TID 0000.0001) > periodicExternalForcing=.TRUE.,
(PID.TID 0000.0001) > externForcingPeriod=2592000.,
(PID.TID 0000.0001) > externForcingCycle=31104000.,
(PID.TID 0000.0001) > /
(PID.TID 0000.0001) >
(PID.TID 0000.0001) ># Gridding parameters
(PID.TID 0000.0001) > &PARM04
(PID.TID 0000.0001) > usingCartesianGrid=.FALSE.,
(PID.TID 0000.0001) > usingSphericalPolarGrid=.TRUE.,
(PID.TID 0000.0001) > delZ= 50., 70., 100., 140., 190.,
(PID.TID 0000.0001) >       240., 290., 340., 390., 440.,
(PID.TID 0000.0001) >       490., 540., 590., 640., 690.,
(PID.TID 0000.0001) > ygOrigin=-90.,
(PID.TID 0000.0001) > delX=128*2.8125,
(PID.TID 0000.0001) > delY=64*2.8125,
(PID.TID 0000.0001) > /
(PID.TID 0000.0001) >
(PID.TID 0000.0001) ># Input datasets
(PID.TID 0000.0001) > &PARM05
(PID.TID 0000.0001) > bathyFile=      '../input/input_ocmip/depth_g77.bin',
(PID.TID 0000.0001) > hydrogThetaFile='../input/input_ocmip/lev_clim_temp.bin',
(PID.TID 0000.0001) > hydrogSaltFile= '../input/input_ocmip/lev_clim_salt.bin',
(PID.TID 0000.0001) > zonalWindFile=  '../input/input_ocmip/tren_taux.bin',
(PID.TID 0000.0001) > meridWindFile=  '../input/input_ocmip/tren_tauy.bin',
(PID.TID 0000.0001) > thetaClimFile=  '../input/input_ocmip/lev_monthly_temp.bin',
(PID.TID 0000.0001) > saltClimFile=   '../input/input_ocmip/lev_monthly_salt.bin',
(PID.TID 0000.0001) > surfQFile=      '../input/input_ocmip/shi_qnet.bin',
(PID.TID 0000.0001) > EmPmRFile=      '../input/input_ocmip/shi_empmr_year.bin',
(PID.TID 0000.0001) > the_run_name=   'Darwin12',
(PID.TID 0000.0001) > /
(PID.TID 0000.0001) 
(PID.TID 0000.0001)  INI_PARMS ; starts to read PARM01
(PID.TID 0000.0001)  INI_PARMS ; read PARM01 : OK
(PID.TID 0000.0001)  INI_PARMS ; starts to read PARM02
(PID.TID 0000.0001)  INI_PARMS ; read PARM02 : OK
(PID.TID 0000.0001)  INI_PARMS ; starts to read PARM03
(PID.TID 0000.0001)  INI_PARMS ; read PARM03 : OK
(PID.TID 0000.0001)  INI_PARMS ; starts to read PARM04
(PID.TID 0000.0001)  INI_PARMS ; read PARM04 : OK
(PID.TID 0000.0001)  INI_PARMS ; starts to read PARM05
(PID.TID 0000.0001)  INI_PARMS ; read PARM05 : OK
(PID.TID 0000.0001)  INI_PARMS: finished reading file "data"
(PID.TID 0000.0001)  PACKAGES_BOOT: opening data.pkg
(PID.TID 0000.0001)  OPEN_COPY_DATA_FILE: opening file data.pkg
(PID.TID 0000.0001) // =======================================================
(PID.TID 0000.0001) // Parameter file "data.pkg"
(PID.TID 0000.0001) // =======================================================
(PID.TID 0000.0001) ># Packages
(PID.TID 0000.0001) > &PACKAGES
(PID.TID 0000.0001) > useGMRedi=.TRUE.
(PID.TID 0000.0001) > usePTRACERS=.TRUE.
(PID.TID 0000.0001) > useGCHEM=.TRUE.,
(PID.TID 0000.0001) > useMNC=.TRUE.,
(PID.TID 0000.0001) > /
(PID.TID 0000.0001) 
(PID.TID 0000.0001)  PACKAGES_BOOT: finished reading data.pkg
(PID.TID 0000.0001)  MNC_READPARMS: opening file 'data.mnc'
(PID.TID 0000.0001)  OPEN_COPY_DATA_FILE: opening file data.mnc
(PID.TID 0000.0001) // =======================================================
(PID.TID 0000.0001) // Parameter file "data.mnc"
(PID.TID 0000.0001) // =======================================================
(PID.TID 0000.0001) ># Example "data.mnc" file
(PID.TID 0000.0001) ># Lines beginning "#" are comments
(PID.TID 0000.0001) > &MNC_01
(PID.TID 0000.0001) ># mnc_echo_gvtypes=.FALSE.,
(PID.TID 0000.0001) ># mnc_use_indir=.FALSE.,
(PID.TID 0000.0001) > mnc_use_outdir=.TRUE.,
(PID.TID 0000.0001) > mnc_outdir_str='ocmip_darwin_',
(PID.TID 0000.0001) > mnc_outdir_date=.TRUE.,
(PID.TID 0000.0001) > monitor_mnc=.FALSE.,
(PID.TID 0000.0001) > snapshot_mnc=.TRUE.,
(PID.TID 0000.0001) > timeave_mnc=.TRUE.,
(PID.TID 0000.0001) > pickup_read_mnc=.FALSE.,
(PID.TID 0000.0001) > pickup_write_mnc=.FALSE.,
(PID.TID 0000.0001) > /
(PID.TID 0000.0001) ># Note: Some systems use & as the
(PID.TID 0000.0001) ># namelist terminator. Other systems
(PID.TID 0000.0001) ># use a / character.
(PID.TID 0000.0001) 
(PID.TID 0000.0001)  MNC_READPARMS: finished reading data.mnc
(PID.TID 0000.0001)  GM_READPARMS: opening data.gmredi
(PID.TID 0000.0001)  OPEN_COPY_DATA_FILE: opening file data.gmredi
(PID.TID 0000.0001) // =======================================================
(PID.TID 0000.0001) // Parameter file "data.gmredi"
(PID.TID 0000.0001) // =======================================================
(PID.TID 0000.0001) ># GM+Redi package parameters:
(PID.TID 0000.0001) >#     GM_Small_Number  :: epsilon used in computing the slope
(PID.TID 0000.0001) >#     GM_slopeSqCutoff :: slope^2 cut-off value
(PID.TID 0000.0001) >
(PID.TID 0000.0001) >#-from MOM :
(PID.TID 0000.0001) ># GM_background_K:      G & Mc.W  diffusion coefficient
(PID.TID 0000.0001) ># GM_maxSlope    :      max slope of isopycnals
(PID.TID 0000.0001) ># GM_Scrit       :      transition for scaling diffusion coefficient
(PID.TID 0000.0001) ># GM_Sd          :      half width scaling for diffusion coefficient
(PID.TID 0000.0001) ># GM_taper_scheme:      slope clipping or one of the tapering schemes
(PID.TID 0000.0001) ># GM_Kmin_horiz  :      horizontal diffusion minimum value
(PID.TID 0000.0001) >
(PID.TID 0000.0001) >#-Option parameters (needs to "define" options in GMREDI_OPTIONS.h")
(PID.TID 0000.0001) ># GM_isopycK     :      isopycnal diffusion coefficient
(PID.TID 0000.0001) >(default=GM_background_K)
(PID.TID 0000.0001) ># GM_AdvForm     :      turn on GM Advective form       (default=Skew flux
(PID.TID 0000.0001) >form)
(PID.TID 0000.0001) >
(PID.TID 0000.0001) > &GM_PARM01
(PID.TID 0000.0001) >  GM_Small_Number    = 1.D-20,
(PID.TID 0000.0001) >  GM_slopeSqCutoff   = 1.D+08,
(PID.TID 0000.0001) >  GM_AdvForm         = .FALSE.,
(PID.TID 0000.0001) >  GM_isopycK         = 1.D+3,
(PID.TID 0000.0001) >  GM_background_K    = 1.D+3,
(PID.TID 0000.0001) >  GM_maxSlope        = 1.D-2,
(PID.TID 0000.0001) >  GM_taper_scheme    = 'dm95',
(PID.TID 0000.0001) >  GM_Kmin_horiz      = 50.,
(PID.TID 0000.0001) >  GM_Scrit           = 4.D-3,
(PID.TID 0000.0001) >  GM_Sd              = 1.D-3,
(PID.TID 0000.0001) >#
(PID.TID 0000.0001) >###  GM_Visbeck_alpha   = 1.5D-2,
(PID.TID 0000.0001) >###  GM_Visbeck_alpha   = 0.D0,
(PID.TID 0000.0001) >###  GM_Visbeck_length  = 2.D+5,
(PID.TID 0000.0001) >###  GM_Visbeck_depth   = 1.D+3,
(PID.TID 0000.0001) >###  GM_Visbeck_maxval_K= 2.5D+3,
(PID.TID 0000.0001) > /
(PID.TID 0000.0001) >
(PID.TID 0000.0001) 
(PID.TID 0000.0001)  GM_READPARMS: finished reading data.gmredi
(PID.TID 0000.0001)  PTRACERS_READPARMS: opening data.ptracers
(PID.TID 0000.0001)  OPEN_COPY_DATA_FILE: opening file data.ptracers
(PID.TID 0000.0001) // =======================================================
(PID.TID 0000.0001) // Parameter file "data.ptracers"
(PID.TID 0000.0001) // =======================================================
(PID.TID 0000.0001) > &PTRACERS_PARM01
(PID.TID 0000.0001) > PTRACERS_numInUse=99,
(PID.TID 0000.0001) > PTRACERS_Iter0= 5644800,
(PID.TID 0000.0001) ># tracer 1 - phosphate
(PID.TID 0000.0001) > PTRACERS_names(1)='PO4',
(PID.TID 0000.0001) > PTRACERS_units(1)='mmol P/m^3',
(PID.TID 0000.0001) > PTRACERS_advScheme(1)=33,
(PID.TID 0000.0001) > PTRACERS_diffKh(1)=0.E3,
(PID.TID 0000.0001) > PTRACERS_diffKr(1)=1.E-5,
(PID.TID 0000.0001) > PTRACERS_useGMRedi(1)=.TRUE. ,
(PID.TID 0000.0001) > PTRACERS_useKPP(1)=.FALSE.,
(PID.TID 0000.0001) > PTRACERS_initialFile(1)='../input/input_ocmip/po4_uM.bin',
(PID.TID 0000.0001) ># tracer 2 - nitrate
(PID.TID 0000.0001) > PTRACERS_names(2)='NO3',
(PID.TID 0000.0001) > PTRACERS_units(2)='mmol N/m^3',
(PID.TID 0000.0001) > PTRACERS_advScheme(2)=33,
(PID.TID 0000.0001) > PTRACERS_diffKh(2)=0.E3,
(PID.TID 0000.0001) > PTRACERS_diffKr(2)=1.E-5,
(PID.TID 0000.0001) > PTRACERS_useGMRedi(2)=.TRUE. ,
(PID.TID 0000.0001) > PTRACERS_useKPP(2)=.FALSE.,
(PID.TID 0000.0001) > PTRACERS_initialFile(2)='../input/input_ocmip/no3_uM.bin',
(PID.TID 0000.0001) ># tracer 3 - dissolved iron
(PID.TID 0000.0001) > PTRACERS_names(3)='FeT',
(PID.TID 0000.0001) > PTRACERS_units(3)='mmol Fe/m^3',
(PID.TID 0000.0001) > PTRACERS_advScheme(3)=33,
(PID.TID 0000.0001) > PTRACERS_diffKh(3)=0.E3,
(PID.TID 0000.0001) > PTRACERS_diffKr(3)=1.E-5,
(PID.TID 0000.0001) > PTRACERS_useGMRedi(3)=.TRUE. ,
(PID.TID 0000.0001) > PTRACERS_useKPP(3)=.FALSE.,
(PID.TID 0000.0001) > PTRACERS_initialFile(3)='../input/input_ocmip/fet_run136.bin',
(PID.TID 0000.0001) ># tracer 4 - silicic acid
(PID.TID 0000.0001) > PTRACERS_names(4)='SiO2',
(PID.TID 0000.0001) > PTRACERS_units(4)='mmol Si/m^3',
(PID.TID 0000.0001) > PTRACERS_advScheme(4)=33,
(PID.TID 0000.0001) > PTRACERS_diffKh(4)=0.E3,
(PID.TID 0000.0001) > PTRACERS_diffKr(4)=1.E-5,
(PID.TID 0000.0001) > PTRACERS_useGMRedi(4)=.TRUE. ,
(PID.TID 0000.0001) > PTRACERS_useKPP(4)=.FALSE.,
(PID.TID 0000.0001) > PTRACERS_initialFile(4)='../input/input_ocmip/sio2_uM.bin',
(PID.TID 0000.0001) ># tracer 5 - DOP
(PID.TID 0000.0001) > PTRACERS_names(5)='DOP',
(PID.TID 0000.0001) > PTRACERS_units(5)='mmol P/m^3',
(PID.TID 0000.0001) > PTRACERS_advScheme(5)=33,
(PID.TID 0000.0001) > PTRACERS_diffKh(5)=0.E3,
(PID.TID 0000.0001) > PTRACERS_diffKr(5)=1.E-5,
(PID.TID 0000.0001) > PTRACERS_useGMRedi(5)=.TRUE. ,
(PID.TID 0000.0001) > PTRACERS_useKPP(5)=.FALSE. ,
(PID.TID 0000.0001) > PTRACERS_initialFile(5)='../input/input_ocmip/dop_run136.bin',
(PID.TID 0000.0001) ># tracer 6 - DON
(PID.TID 0000.0001) > PTRACERS_names(6)='DON',
(PID.TID 0000.0001) > PTRACERS_units(6)='mmol N/m^3',
(PID.TID 0000.0001) > PTRACERS_advScheme(6)=33,
(PID.TID 0000.0001) > PTRACERS_diffKh(6)=0.E3,
(PID.TID 0000.0001) > PTRACERS_diffKr(6)=1.E-5,
(PID.TID 0000.0001) > PTRACERS_useGMRedi(6)=.TRUE. ,
(PID.TID 0000.0001) > PTRACERS_useKPP(6)=.FALSE. ,
(PID.TID 0000.0001) > PTRACERS_initialFile(6)='../input/input_ocmip/don_init.bin',
(PID.TID 0000.0001) ># tracer 7 - DOFe
(PID.TID 0000.0001) > PTRACERS_names(7)='DOFe',
(PID.TID 0000.0001) > PTRACERS_units(7)='mmol Fe/m^3',
(PID.TID 0000.0001) > PTRACERS_advScheme(7)=33,
(PID.TID 0000.0001) > PTRACERS_diffKh(7)=0.E3,
(PID.TID 0000.0001) > PTRACERS_diffKr(7)=1.E-5,
(PID.TID 0000.0001) > PTRACERS_useGMRedi(7)=.TRUE. ,
(PID.TID 0000.0001) > PTRACERS_useKPP(7)=.FALSE. ,
(PID.TID 0000.0001) > PTRACERS_initialFile(7)='../input/input_ocmip/dof_run136.bin',
(PID.TID 0000.0001) ># tracer 8 - ZOO1P
(PID.TID 0000.0001) > PTRACERS_names(8)='ZOO1P',
(PID.TID 0000.0001) > PTRACERS_units(8)='mmol P/m^3',
(PID.TID 0000.0001) > PTRACERS_advScheme(8)=33,
(PID.TID 0000.0001) > PTRACERS_diffKh(8)=0.E3,
(PID.TID 0000.0001) > PTRACERS_diffKr(8)=1.E-5,
(PID.TID 0000.0001) > PTRACERS_useGMRedi(8)=.TRUE. ,
(PID.TID 0000.0001) > PTRACERS_useKPP(8)=.FALSE. ,
(PID.TID 0000.0001) > PTRACERS_initialFile(8)='../input/input_ocmip/seawifs_zoo_p2.bin',
(PID.TID 0000.0001) ># tracer 9 - ZOO1N
(PID.TID 0000.0001) > PTRACERS_names(9)='ZOO1N',
(PID.TID 0000.0001) > PTRACERS_units(9)='mmol N/m^3'
(PID.TID 0000.0001) > PTRACERS_advScheme(9)=33,
(PID.TID 0000.0001) > PTRACERS_diffKh(9)=0.E3,
(PID.TID 0000.0001) > PTRACERS_diffKr(9)=1.E-5,
(PID.TID 0000.0001) > PTRACERS_useGMRedi(9)=.TRUE. ,
(PID.TID 0000.0001) > PTRACERS_useKPP(9)=.FALSE. ,
(PID.TID 0000.0001) > PTRACERS_initialFile(9)='../input/input_ocmip/seawifs_zoo_n2.bin',
(PID.TID 0000.0001) ># tracer 10 - ZOO1Fe
(PID.TID 0000.0001) > PTRACERS_names(10)='ZOO1Fe',
(PID.TID 0000.0001) > PTRACERS_units(10)='mmol Fe/m^3'
(PID.TID 0000.0001) > PTRACERS_advScheme(10)=33,
(PID.TID 0000.0001) > PTRACERS_diffKh(10)=0.E3,
(PID.TID 0000.0001) > PTRACERS_diffKr(10)=1.E-5,
(PID.TID 0000.0001) > PTRACERS_useGMRedi(10)=.TRUE. ,
(PID.TID 0000.0001) > PTRACERS_useKPP(10)=.FALSE. ,
(PID.TID 0000.0001) > PTRACERS_initialFile(10)='../input/input_ocmip/seawifs_zoo_fe2.bin',
(PID.TID 0000.0001) ># tracer 11 - ZOO1Si
(PID.TID 0000.0001) > PTRACERS_names(11)='ZOO1Si',
(PID.TID 0000.0001) > PTRACERS_units(11)='mmol Si/m^3'
(PID.TID 0000.0001) > PTRACERS_advScheme(11)=33,
(PID.TID 0000.0001) > PTRACERS_diffKh(11)=0.E3,
(PID.TID 0000.0001) > PTRACERS_diffKr(11)=1.E-5,
(PID.TID 0000.0001) > PTRACERS_useGMRedi(11)=.TRUE. ,
(PID.TID 0000.0001) > PTRACERS_useKPP(11)=.FALSE. ,
(PID.TID 0000.0001) > PTRACERS_initialFile(11)='../input/input_ocmip/seawifs_zoo_si2.bin',
(PID.TID 0000.0001) ># tracer 12 - ZOO2P
(PID.TID 0000.0001) > PTRACERS_names(12)='ZOO2P',
(PID.TID 0000.0001) > PTRACERS_units(12)='mmol P/m^3',
(PID.TID 0000.0001) > PTRACERS_advScheme(12)=33,
(PID.TID 0000.0001) > PTRACERS_diffKh(12)=0.E3,
(PID.TID 0000.0001) > PTRACERS_diffKr(12)=1.E-5,
(PID.TID 0000.0001) > PTRACERS_useGMRedi(12)=.TRUE. ,
(PID.TID 0000.0001) > PTRACERS_useKPP(12)=.FALSE. ,
(PID.TID 0000.0001) > PTRACERS_initialFile(12)='../input/input_ocmip/seawifs_zoo_p2.bin',
(PID.TID 0000.0001) ># tracer 13 - ZOO2N
(PID.TID 0000.0001) > PTRACERS_names(13)='ZOO2N',
(PID.TID 0000.0001) > PTRACERS_units(13)='mmol N/m^3'
(PID.TID 0000.0001) > PTRACERS_advScheme(13)=33,
(PID.TID 0000.0001) > PTRACERS_diffKh(13)=0.E3,
(PID.TID 0000.0001) > PTRACERS_diffKr(13)=1.E-5,
(PID.TID 0000.0001) > PTRACERS_useGMRedi(13)=.TRUE. ,
(PID.TID 0000.0001) > PTRACERS_useKPP(13)=.FALSE. ,
(PID.TID 0000.0001) > PTRACERS_initialFile(13)='../input/input_ocmip/seawifs_zoo_n2.bin',
(PID.TID 0000.0001) ># tracer 14 - ZOO2Fe
(PID.TID 0000.0001) > PTRACERS_names(14)='ZOO2Fe',
(PID.TID 0000.0001) > PTRACERS_units(14)='mmol Fe/m^3'
(PID.TID 0000.0001) > PTRACERS_advScheme(14)=33,
(PID.TID 0000.0001) > PTRACERS_diffKh(14)=0.E3,
(PID.TID 0000.0001) > PTRACERS_diffKr(14)=1.E-5,
(PID.TID 0000.0001) > PTRACERS_useGMRedi(14)=.TRUE. ,
(PID.TID 0000.0001) > PTRACERS_useKPP(14)=.FALSE. ,
(PID.TID 0000.0001) > PTRACERS_initialFile(14)='../input/input_ocmip/seawifs_zoo_fe2.bin',
(PID.TID 0000.0001) ># tracer 15 - ZOO2Si
(PID.TID 0000.0001) > PTRACERS_names(15)='ZOO2Si',
(PID.TID 0000.0001) > PTRACERS_units(15)='mmol Si/m^3'
(PID.TID 0000.0001) > PTRACERS_advScheme(15)=33,
(PID.TID 0000.0001) > PTRACERS_diffKh(15)=0.E3,
(PID.TID 0000.0001) > PTRACERS_diffKr(15)=1.E-5,
(PID.TID 0000.0001) > PTRACERS_useGMRedi(15)=.TRUE. ,
(PID.TID 0000.0001) > PTRACERS_useKPP(15)=.FALSE. ,
(PID.TID 0000.0001) > PTRACERS_initialFile(15)='../input/input_ocmip/seawifs_zoo_si2.bin',
(PID.TID 0000.0001) ># tracer 16 - POP
(PID.TID 0000.0001) > PTRACERS_names(16)='POP',
(PID.TID 0000.0001) > PTRACERS_units(16)='mmol P/m^3',
(PID.TID 0000.0001) > PTRACERS_advScheme(16)=33,
(PID.TID 0000.0001) > PTRACERS_diffKh(16)=0.E3,
(PID.TID 0000.0001) > PTRACERS_diffKr(16)=1.E-5,
(PID.TID 0000.0001) > PTRACERS_useGMRedi(16)=.TRUE. ,
(PID.TID 0000.0001) > PTRACERS_useKPP(16)=.FALSE. ,
(PID.TID 0000.0001) > PTRACERS_initialFile(16)='../input/input_ocmip/pop_run136.bin',
(PID.TID 0000.0001) ># tracer 17 - PON
(PID.TID 0000.0001) > PTRACERS_names(17)='PON',
(PID.TID 0000.0001) > PTRACERS_units(17)='mmol N/m^3',
(PID.TID 0000.0001) > PTRACERS_advScheme(17)=33,
(PID.TID 0000.0001) > PTRACERS_diffKh(17)=0.E3,
(PID.TID 0000.0001) > PTRACERS_diffKr(17)=1.E-5,
(PID.TID 0000.0001) > PTRACERS_useGMRedi(17)=.TRUE. ,
(PID.TID 0000.0001) > PTRACERS_useKPP(17)=.FALSE. ,
(PID.TID 0000.0001) > PTRACERS_initialFile(17)='../input/input_ocmip/pon_init.bin',
(PID.TID 0000.0001) ># tracer 18 - POFe
(PID.TID 0000.0001) > PTRACERS_names(18)='POFe',
(PID.TID 0000.0001) > PTRACERS_units(18)='mmol Fe/m^3'
(PID.TID 0000.0001) > PTRACERS_advScheme(18)=33,
(PID.TID 0000.0001) > PTRACERS_diffKh(18)=0.E3,
(PID.TID 0000.0001) > PTRACERS_diffKr(18)=1.E-5,
(PID.TID 0000.0001) > PTRACERS_useGMRedi(18)=.TRUE. ,
(PID.TID 0000.0001) > PTRACERS_useKPP(18)=.FALSE. ,
(PID.TID 0000.0001) > PTRACERS_initialFile(18)='../input/input_ocmip/pof_run136.bin',
(PID.TID 0000.0001) ># tracer 19 - POSi
(PID.TID 0000.0001) > PTRACERS_names(19)='POSi',
(PID.TID 0000.0001) > PTRACERS_units(19)='mmol Si/m^3'
(PID.TID 0000.0001) > PTRACERS_advScheme(19)=33,
(PID.TID 0000.0001) > PTRACERS_diffKh(19)=0.E3,
(PID.TID 0000.0001) > PTRACERS_diffKr(19)=1.E-5,
(PID.TID 0000.0001) > PTRACERS_useGMRedi(19)=.TRUE. ,
(PID.TID 0000.0001) > PTRACERS_useKPP(19)=.FALSE. ,
(PID.TID 0000.0001) > PTRACERS_initialFile(19)='../input/input_ocmip/pos_run136.bin',
(PID.TID 0000.0001) ># tracer 20 - NH4
(PID.TID 0000.0001) > PTRACERS_names(20)='NH4',
(PID.TID 0000.0001) > PTRACERS_units(20)='mmol N/m^3'
(PID.TID 0000.0001) > PTRACERS_advScheme(20)=33,
(PID.TID 0000.0001) > PTRACERS_diffKh(20)=0.E3,
(PID.TID 0000.0001) > PTRACERS_diffKr(20)=1.E-5,
(PID.TID 0000.0001) > PTRACERS_useGMRedi(20)=.TRUE. ,
(PID.TID 0000.0001) > PTRACERS_useKPP(20)=.FALSE. ,
(PID.TID 0000.0001) > PTRACERS_initialFile(20)='../input/input_ocmip/nh4_run1_ocmip.bin',
(PID.TID 0000.0001) ># tracer 21 - NO2
(PID.TID 0000.0001) > PTRACERS_names(21)='NO2',
(PID.TID 0000.0001) > PTRACERS_units(21)='mmol N/m^3'
(PID.TID 0000.0001) > PTRACERS_advScheme(21)=33,
(PID.TID 0000.0001) > PTRACERS_diffKh(21)=0.E3,
(PID.TID 0000.0001) > PTRACERS_diffKr(21)=1.E-5,
(PID.TID 0000.0001) > PTRACERS_useGMRedi(21)=.TRUE. ,
(PID.TID 0000.0001) > PTRACERS_useKPP(21)=.FALSE. ,
(PID.TID 0000.0001) > PTRACERS_initialFile(21)='../input/input_ocmip/no2_run1_ocmip.bin',
(PID.TID 0000.0001) ># tracer 22 - PHYT01
(PID.TID 0000.0001) > PTRACERS_names(22)='Phy01',
(PID.TID 0000.0001) > PTRACERS_units(22)='mmol P/m^3'
(PID.TID 0000.0001) > PTRACERS_advScheme(22)=33,
(PID.TID 0000.0001) > PTRACERS_diffKh(22)=0.E3,
(PID.TID 0000.0001) > PTRACERS_diffKr(22)=1.E-5,
(PID.TID 0000.0001) > PTRACERS_useGMRedi(22)=.TRUE. ,
(PID.TID 0000.0001) > PTRACERS_useKPP(22)=.FALSE. ,
(PID.TID 0000.0001) > PTRACERS_initialFile(22)='../input/input_ocmip/seawifs_chl_p78.bin',
(PID.TID 0000.0001) ># tracer 23 - PHYT02
(PID.TID 0000.0001) > PTRACERS_names(23)='Phy02',
(PID.TID 0000.0001) > PTRACERS_units(23)='mmol P/m^3'
(PID.TID 0000.0001) > PTRACERS_advScheme(23)=33,
(PID.TID 0000.0001) > PTRACERS_diffKh(23)=0.E3,
(PID.TID 0000.0001) > PTRACERS_diffKr(23)=1.E-5,
(PID.TID 0000.0001) > PTRACERS_useGMRedi(23)=.TRUE. ,
(PID.TID 0000.0001) > PTRACERS_useKPP(23)=.FALSE. ,
(PID.TID 0000.0001) > PTRACERS_initialFile(23)='../input/input_ocmip/seawifs_chl_p78.bin',
(PID.TID 0000.0001) ># tracer 24 - PHYT03
(PID.TID 0000.0001) > PTRACERS_names(24)='Phy03',
(PID.TID 0000.0001) > PTRACERS_units(24)='mmol P/m^3'
(PID.TID 0000.0001) > PTRACERS_advScheme(24)=33,
(PID.TID 0000.0001) > PTRACERS_diffKh(24)=0.E3,
(PID.TID 0000.0001) > PTRACERS_diffKr(24)=1.E-5,
(PID.TID 0000.0001) > PTRACERS_useGMRedi(24)=.TRUE. ,
(PID.TID 0000.0001) > PTRACERS_useKPP(24)=.FALSE. ,
(PID.TID 0000.0001) > PTRACERS_initialFile(24)='../input/input_ocmip/seawifs_chl_p78.bin',
(PID.TID 0000.0001) ># tracer 25 - PHYT04
(PID.TID 0000.0001) > PTRACERS_names(25)='Phy04',
(PID.TID 0000.0001) > PTRACERS_units(25)='mmol P/m^3'
(PID.TID 0000.0001) > PTRACERS_advScheme(25)=33,
(PID.TID 0000.0001) > PTRACERS_diffKh(25)=0.E3,
(PID.TID 0000.0001) > PTRACERS_diffKr(25)=1.E-5,
(PID.TID 0000.0001) > PTRACERS_useGMRedi(25)=.TRUE. ,
(PID.TID 0000.0001) > PTRACERS_useKPP(25)=.FALSE. ,
(PID.TID 0000.0001) > PTRACERS_initialFile(25)='../input/input_ocmip/seawifs_chl_p78.bin',
(PID.TID 0000.0001) ># tracer 26 - PHYT05
(PID.TID 0000.0001) > PTRACERS_names(26)='Phy05',
(PID.TID 0000.0001) > PTRACERS_units(26)='mmol P/m^3'
(PID.TID 0000.0001) > PTRACERS_advScheme(26)=33,
(PID.TID 0000.0001) > PTRACERS_diffKh(26)=0.E3,
(PID.TID 0000.0001) > PTRACERS_diffKr(26)=1.E-5,
(PID.TID 0000.0001) > PTRACERS_useGMRedi(26)=.TRUE. ,
(PID.TID 0000.0001) > PTRACERS_useKPP(26)=.FALSE. ,
(PID.TID 0000.0001) > PTRACERS_initialFile(26)='../input/input_ocmip/seawifs_chl_p78.bin',
(PID.TID 0000.0001) ># tracer 27 - PHYT06
(PID.TID 0000.0001) > PTRACERS_names(27)='Phy06',
(PID.TID 0000.0001) > PTRACERS_units(27)='mmol P/m^3'
(PID.TID 0000.0001) > PTRACERS_advScheme(27)=33,
(PID.TID 0000.0001) > PTRACERS_diffKh(27)=0.E3,
(PID.TID 0000.0001) > PTRACERS_diffKr(27)=1.E-5,
(PID.TID 0000.0001) > PTRACERS_useGMRedi(27)=.TRUE. ,
(PID.TID 0000.0001) > PTRACERS_useKPP(27)=.FALSE. ,
(PID.TID 0000.0001) > PTRACERS_initialFile(27)='../input/input_ocmip/seawifs_chl_p78.bin',
(PID.TID 0000.0001) ># tracer 28 - PHYT07
(PID.TID 0000.0001) > PTRACERS_names(28)='Phy07',
(PID.TID 0000.0001) > PTRACERS_units(28)='mmol P/m^3'
(PID.TID 0000.0001) > PTRACERS_advScheme(28)=33,
(PID.TID 0000.0001) > PTRACERS_diffKh(28)=0.E3,
(PID.TID 0000.0001) > PTRACERS_diffKr(28)=1.E-5,
(PID.TID 0000.0001) > PTRACERS_useGMRedi(28)=.TRUE. ,
(PID.TID 0000.0001) > PTRACERS_useKPP(28)=.FALSE. ,
(PID.TID 0000.0001) > PTRACERS_initialFile(28)='../input/input_ocmip/seawifs_chl_p78.bin',
(PID.TID 0000.0001) ># tracer 29 - PHYT08
(PID.TID 0000.0001) > PTRACERS_names(29)='Phy08',
(PID.TID 0000.0001) > PTRACERS_units(29)='mmol P/m^3'
(PID.TID 0000.0001) > PTRACERS_advScheme(29)=33,
(PID.TID 0000.0001) > PTRACERS_diffKh(29)=0.E3,
(PID.TID 0000.0001) > PTRACERS_diffKr(29)=1.E-5,
(PID.TID 0000.0001) > PTRACERS_useGMRedi(29)=.TRUE. ,
(PID.TID 0000.0001) > PTRACERS_useKPP(29)=.FALSE. ,
(PID.TID 0000.0001) > PTRACERS_initialFile(29)='../input/input_ocmip/seawifs_chl_p78.bin',
(PID.TID 0000.0001) ># tracer 30 - PHYT09
(PID.TID 0000.0001) > PTRACERS_names(30)='Phy09',
(PID.TID 0000.0001) > PTRACERS_units(30)='mmol P/m^3'
(PID.TID 0000.0001) > PTRACERS_advScheme(30)=33,
(PID.TID 0000.0001) > PTRACERS_diffKh(30)=0.E3,
(PID.TID 0000.0001) > PTRACERS_diffKr(30)=1.E-5,
(PID.TID 0000.0001) > PTRACERS_useGMRedi(30)=.TRUE. ,
(PID.TID 0000.0001) > PTRACERS_useKPP(30)=.FALSE. ,
(PID.TID 0000.0001) > PTRACERS_initialFile(30)='../input/input_ocmip/seawifs_chl_p78.bin',
(PID.TID 0000.0001) ># tracer 31 - PHYT10
(PID.TID 0000.0001) > PTRACERS_names(31)='Phy10',
(PID.TID 0000.0001) > PTRACERS_units(31)='mmol P/m^3'
(PID.TID 0000.0001) > PTRACERS_advScheme(31)=33,
(PID.TID 0000.0001) > PTRACERS_diffKh(31)=0.E3,
(PID.TID 0000.0001) > PTRACERS_diffKr(31)=1.E-5,
(PID.TID 0000.0001) > PTRACERS_useGMRedi(31)=.TRUE. ,
(PID.TID 0000.0001) > PTRACERS_useKPP(31)=.FALSE. ,
(PID.TID 0000.0001) > PTRACERS_initialFile(31)='../input/input_ocmip/seawifs_chl_p78.bin',
(PID.TID 0000.0001) ># tracer 32 - PHYT11
(PID.TID 0000.0001) > PTRACERS_names(32)='Phy11',
(PID.TID 0000.0001) > PTRACERS_units(32)='mmol P/m^3'
(PID.TID 0000.0001) > PTRACERS_advScheme(32)=33,
(PID.TID 0000.0001) > PTRACERS_diffKh(32)=0.E3,
(PID.TID 0000.0001) > PTRACERS_diffKr(32)=1.E-5,
(PID.TID 0000.0001) > PTRACERS_useGMRedi(32)=.TRUE. ,
(PID.TID 0000.0001) > PTRACERS_useKPP(32)=.FALSE. ,
(PID.TID 0000.0001) > PTRACERS_initialFile(32)='../input/input_ocmip/seawifs_chl_p78.bin',
(PID.TID 0000.0001) ># tracer 33 - PHYT12
(PID.TID 0000.0001) > PTRACERS_names(33)='Phy12',
(PID.TID 0000.0001) > PTRACERS_units(33)='mmol P/m^3'
(PID.TID 0000.0001) > PTRACERS_advScheme(33)=33,
(PID.TID 0000.0001) > PTRACERS_diffKh(33)=0.E3,
(PID.TID 0000.0001) > PTRACERS_diffKr(33)=1.E-5,
(PID.TID 0000.0001) > PTRACERS_useGMRedi(33)=.TRUE. ,
(PID.TID 0000.0001) > PTRACERS_useKPP(33)=.FALSE. ,
(PID.TID 0000.0001) > PTRACERS_initialFile(33)='../input/input_ocmip/seawifs_chl_p78.bin',
(PID.TID 0000.0001) ># tracer 34 - PHYT13
(PID.TID 0000.0001) > PTRACERS_names(34)='Phy13',
(PID.TID 0000.0001) > PTRACERS_units(34)='mmol P/m^3'
(PID.TID 0000.0001) > PTRACERS_advScheme(34)=33,
(PID.TID 0000.0001) > PTRACERS_diffKh(34)=0.E3,
(PID.TID 0000.0001) > PTRACERS_diffKr(34)=1.E-5,
(PID.TID 0000.0001) > PTRACERS_useGMRedi(34)=.TRUE. ,
(PID.TID 0000.0001) > PTRACERS_useKPP(34)=.FALSE. ,
(PID.TID 0000.0001) > PTRACERS_initialFile(34)='../input/input_ocmip/seawifs_chl_p78.bin',
(PID.TID 0000.0001) ># tracer 35 - PHYT14
(PID.TID 0000.0001) > PTRACERS_names(35)='Phy14',
(PID.TID 0000.0001) > PTRACERS_units(35)='mmol P/m^3'
(PID.TID 0000.0001) > PTRACERS_advScheme(35)=33,
(PID.TID 0000.0001) > PTRACERS_diffKh(35)=0.E3,
(PID.TID 0000.0001) > PTRACERS_diffKr(35)=1.E-5,
(PID.TID 0000.0001) > PTRACERS_useGMRedi(35)=.TRUE. ,
(PID.TID 0000.0001) > PTRACERS_useKPP(35)=.FALSE. ,
(PID.TID 0000.0001) > PTRACERS_initialFile(35)='../input/input_ocmip/seawifs_chl_p78.bin',
(PID.TID 0000.0001) ># tracer 36 - PHYT15
(PID.TID 0000.0001) > PTRACERS_names(36)='Phy15',
(PID.TID 0000.0001) > PTRACERS_units(36)='mmol P/m^3'
(PID.TID 0000.0001) > PTRACERS_advScheme(36)=33,
(PID.TID 0000.0001) > PTRACERS_diffKh(36)=0.E3,
(PID.TID 0000.0001) > PTRACERS_diffKr(36)=1.E-5,
(PID.TID 0000.0001) > PTRACERS_useGMRedi(36)=.TRUE. ,
(PID.TID 0000.0001) > PTRACERS_useKPP(36)=.FALSE. ,
(PID.TID 0000.0001) > PTRACERS_initialFile(36)='../input/input_ocmip/seawifs_chl_p78.bin',
(PID.TID 0000.0001) ># tracer 37 - PHYT16
(PID.TID 0000.0001) > PTRACERS_names(37)='Phy16',
(PID.TID 0000.0001) > PTRACERS_units(37)='mmol P/m^3'
(PID.TID 0000.0001) > PTRACERS_advScheme(37)=33,
(PID.TID 0000.0001) > PTRACERS_diffKh(37)=0.E3,
(PID.TID 0000.0001) > PTRACERS_diffKr(37)=1.E-5,
(PID.TID 0000.0001) > PTRACERS_useGMRedi(37)=.TRUE. ,
(PID.TID 0000.0001) > PTRACERS_useKPP(37)=.FALSE. ,
(PID.TID 0000.0001) > PTRACERS_initialFile(37)='../input/input_ocmip/seawifs_chl_p78.bin',
(PID.TID 0000.0001) ># tracer 38 - PHYT17
(PID.TID 0000.0001) > PTRACERS_names(38)='Phy17',
(PID.TID 0000.0001) > PTRACERS_units(38)='mmol P/m^3'
(PID.TID 0000.0001) > PTRACERS_advScheme(38)=33,
(PID.TID 0000.0001) > PTRACERS_diffKh(38)=0.E3,
(PID.TID 0000.0001) > PTRACERS_diffKr(38)=1.E-5,
(PID.TID 0000.0001) > PTRACERS_useGMRedi(38)=.TRUE. ,
(PID.TID 0000.0001) > PTRACERS_useKPP(38)=.FALSE. ,
(PID.TID 0000.0001) > PTRACERS_initialFile(38)='../input/input_ocmip/seawifs_chl_p78.bin',
(PID.TID 0000.0001) ># tracer 39 - PHYT18
(PID.TID 0000.0001) > PTRACERS_names(39)='Phy18',
(PID.TID 0000.0001) > PTRACERS_units(39)='mmol P/m^3'
(PID.TID 0000.0001) > PTRACERS_advScheme(39)=33,
(PID.TID 0000.0001) > PTRACERS_diffKh(39)=0.E3,
(PID.TID 0000.0001) > PTRACERS_diffKr(39)=1.E-5,
(PID.TID 0000.0001) > PTRACERS_useGMRedi(39)=.TRUE. ,
(PID.TID 0000.0001) > PTRACERS_useKPP(39)=.FALSE. ,
(PID.TID 0000.0001) > PTRACERS_initialFile(39)='../input/input_ocmip/seawifs_chl_p78.bin',
(PID.TID 0000.0001) ># tracer 40 - PHYT19
(PID.TID 0000.0001) > PTRACERS_names(40)='Phy19',
(PID.TID 0000.0001) > PTRACERS_units(40)='mmol P/m^3'
(PID.TID 0000.0001) > PTRACERS_advScheme(40)=33,
(PID.TID 0000.0001) > PTRACERS_diffKh(40)=0.E3,
(PID.TID 0000.0001) > PTRACERS_diffKr(40)=1.E-5,
(PID.TID 0000.0001) > PTRACERS_useGMRedi(40)=.TRUE. ,
(PID.TID 0000.0001) > PTRACERS_useKPP(40)=.FALSE. ,
(PID.TID 0000.0001) > PTRACERS_initialFile(40)='../input/input_ocmip/seawifs_chl_p78.bin',
(PID.TID 0000.0001) ># tracer 41 - PHYT20
(PID.TID 0000.0001) > PTRACERS_names(41)='Phy20',
(PID.TID 0000.0001) > PTRACERS_units(41)='mmol P/m^3'
(PID.TID 0000.0001) > PTRACERS_advScheme(41)=33,
(PID.TID 0000.0001) > PTRACERS_diffKh(41)=0.E3,
(PID.TID 0000.0001) > PTRACERS_diffKr(41)=1.E-5,
(PID.TID 0000.0001) > PTRACERS_useGMRedi(41)=.TRUE. ,
(PID.TID 0000.0001) > PTRACERS_useKPP(41)=.FALSE. ,
(PID.TID 0000.0001) > PTRACERS_initialFile(41)='../input/input_ocmip/seawifs_chl_p78.bin',
(PID.TID 0000.0001) ># tracer 42 - PHYT21
(PID.TID 0000.0001) > PTRACERS_names(42)='Phy21',
(PID.TID 0000.0001) > PTRACERS_units(42)='mmol P/m^3'
(PID.TID 0000.0001) > PTRACERS_advScheme(42)=33,
(PID.TID 0000.0001) > PTRACERS_diffKh(42)=0.E3,
(PID.TID 0000.0001) > PTRACERS_diffKr(42)=1.E-5,
(PID.TID 0000.0001) > PTRACERS_useGMRedi(42)=.TRUE. ,
(PID.TID 0000.0001) > PTRACERS_useKPP(42)=.FALSE. ,
(PID.TID 0000.0001) > PTRACERS_initialFile(42)='../input/input_ocmip/seawifs_chl_p78.bin',
(PID.TID 0000.0001) ># tracer 43 - PHYT22
(PID.TID 0000.0001) > PTRACERS_names(43)='Phy22',
(PID.TID 0000.0001) > PTRACERS_units(43)='mmol P/m^3'
(PID.TID 0000.0001) > PTRACERS_advScheme(43)=33,
(PID.TID 0000.0001) > PTRACERS_diffKh(43)=0.E3,
(PID.TID 0000.0001) > PTRACERS_diffKr(43)=1.E-5,
(PID.TID 0000.0001) > PTRACERS_useGMRedi(43)=.TRUE. ,
(PID.TID 0000.0001) > PTRACERS_useKPP(43)=.FALSE. ,
(PID.TID 0000.0001) > PTRACERS_initialFile(43)='../input/input_ocmip/seawifs_chl_p78.bin',
(PID.TID 0000.0001) ># tracer 44 - PHYT23
(PID.TID 0000.0001) > PTRACERS_names(44)='Phy23',
(PID.TID 0000.0001) > PTRACERS_units(44)='mmol P/m^3'
(PID.TID 0000.0001) > PTRACERS_advScheme(44)=33,
(PID.TID 0000.0001) > PTRACERS_diffKh(44)=0.E3,
(PID.TID 0000.0001) > PTRACERS_diffKr(44)=1.E-5,
(PID.TID 0000.0001) > PTRACERS_useGMRedi(44)=.TRUE. ,
(PID.TID 0000.0001) > PTRACERS_useKPP(44)=.FALSE. ,
(PID.TID 0000.0001) > PTRACERS_initialFile(44)='../input/input_ocmip/seawifs_chl_p78.bin',
(PID.TID 0000.0001) ># tracer 45 - PHYT24
(PID.TID 0000.0001) > PTRACERS_names(45)='Phy24',
(PID.TID 0000.0001) > PTRACERS_units(45)='mmol P/m^3'
(PID.TID 0000.0001) > PTRACERS_advScheme(45)=33,
(PID.TID 0000.0001) > PTRACERS_diffKh(45)=0.E3,
(PID.TID 0000.0001) > PTRACERS_diffKr(45)=1.E-5,
(PID.TID 0000.0001) > PTRACERS_useGMRedi(45)=.TRUE. ,
(PID.TID 0000.0001) > PTRACERS_useKPP(45)=.FALSE. ,
(PID.TID 0000.0001) > PTRACERS_initialFile(45)='../input/input_ocmip/seawifs_chl_p78.bin',
(PID.TID 0000.0001) ># tracer 46 - PHYT25
(PID.TID 0000.0001) > PTRACERS_names(46)='Phy25',
(PID.TID 0000.0001) > PTRACERS_units(46)='mmol P/m^3'
(PID.TID 0000.0001) > PTRACERS_advScheme(46)=33,
(PID.TID 0000.0001) > PTRACERS_diffKh(46)=0.E3,
(PID.TID 0000.0001) > PTRACERS_diffKr(46)=1.E-5,
(PID.TID 0000.0001) > PTRACERS_useGMRedi(46)=.TRUE. ,
(PID.TID 0000.0001) > PTRACERS_useKPP(46)=.FALSE. ,
(PID.TID 0000.0001) > PTRACERS_initialFile(46)='../input/input_ocmip/seawifs_chl_p78.bin',
(PID.TID 0000.0001) ># tracer 47 - PHYT26
(PID.TID 0000.0001) > PTRACERS_names(47)='Phy26',
(PID.TID 0000.0001) > PTRACERS_units(47)='mmol P/m^3'
(PID.TID 0000.0001) > PTRACERS_advScheme(47)=33,
(PID.TID 0000.0001) > PTRACERS_diffKh(47)=0.E3,
(PID.TID 0000.0001) > PTRACERS_diffKr(47)=1.E-5,
(PID.TID 0000.0001) > PTRACERS_useGMRedi(47)=.TRUE. ,
(PID.TID 0000.0001) > PTRACERS_useKPP(47)=.FALSE. ,
(PID.TID 0000.0001) > PTRACERS_initialFile(47)='../input/input_ocmip/seawifs_chl_p78.bin',
(PID.TID 0000.0001) ># tracer 48 - PHYT27
(PID.TID 0000.0001) > PTRACERS_names(48)='Phy27',
(PID.TID 0000.0001) > PTRACERS_units(48)='mmol P/m^3'
(PID.TID 0000.0001) > PTRACERS_advScheme(48)=33,
(PID.TID 0000.0001) > PTRACERS_diffKh(48)=0.E3,
(PID.TID 0000.0001) > PTRACERS_diffKr(48)=1.E-5,
(PID.TID 0000.0001) > PTRACERS_useGMRedi(48)=.TRUE. ,
(PID.TID 0000.0001) > PTRACERS_useKPP(48)=.FALSE. ,
(PID.TID 0000.0001) > PTRACERS_initialFile(48)='../input/input_ocmip/seawifs_chl_p78.bin',
(PID.TID 0000.0001) ># tracer 49 - PHYT28
(PID.TID 0000.0001) > PTRACERS_names(49)='Phy28',
(PID.TID 0000.0001) > PTRACERS_units(49)='mmol P/m^3'
(PID.TID 0000.0001) > PTRACERS_advScheme(49)=33,
(PID.TID 0000.0001) > PTRACERS_diffKh(49)=0.E3,
(PID.TID 0000.0001) > PTRACERS_diffKr(49)=1.E-5,
(PID.TID 0000.0001) > PTRACERS_useGMRedi(49)=.TRUE. ,
(PID.TID 0000.0001) > PTRACERS_useKPP(49)=.FALSE. ,
(PID.TID 0000.0001) > PTRACERS_initialFile(49)='../input/input_ocmip/seawifs_chl_p78.bin',
(PID.TID 0000.0001) ># tracer 50 - PHYT29
(PID.TID 0000.0001) > PTRACERS_names(50)='Phy29',
(PID.TID 0000.0001) > PTRACERS_units(50)='mmol P/m^3'
(PID.TID 0000.0001) > PTRACERS_advScheme(50)=33,
(PID.TID 0000.0001) > PTRACERS_diffKh(50)=0.E3,
(PID.TID 0000.0001) > PTRACERS_diffKr(50)=1.E-5,
(PID.TID 0000.0001) > PTRACERS_useGMRedi(50)=.TRUE. ,
(PID.TID 0000.0001) > PTRACERS_useKPP(50)=.FALSE. ,
(PID.TID 0000.0001) > PTRACERS_initialFile(50)='../input/input_ocmip/seawifs_chl_p78.bin',
(PID.TID 0000.0001) ># tracer 51 - PHY30
(PID.TID 0000.0001) > PTRACERS_names(51)='Phy30',
(PID.TID 0000.0001) > PTRACERS_units(51)='mmol P/m^3'
(PID.TID 0000.0001) > PTRACERS_advScheme(51)=33,
(PID.TID 0000.0001) > PTRACERS_diffKh(51)=0.E3,
(PID.TID 0000.0001) > PTRACERS_diffKr(51)=1.E-5,
(PID.TID 0000.0001) > PTRACERS_useGMRedi(51)=.TRUE. ,
(PID.TID 0000.0001) > PTRACERS_useKPP(51)=.FALSE. ,
(PID.TID 0000.0001) > PTRACERS_initialFile(51)='../input/input_ocmip/seawifs_chl_p78.bin',
(PID.TID 0000.0001) ># tracer 52 - PHY31
(PID.TID 0000.0001) > PTRACERS_names(52)='Phy31',
(PID.TID 0000.0001) > PTRACERS_units(52)='mmol P/m^3'
(PID.TID 0000.0001) > PTRACERS_advScheme(52)=33,
(PID.TID 0000.0001) > PTRACERS_diffKh(52)=0.E3,
(PID.TID 0000.0001) > PTRACERS_diffKr(52)=1.E-5,
(PID.TID 0000.0001) > PTRACERS_useGMRedi(52)=.TRUE. ,
(PID.TID 0000.0001) > PTRACERS_useKPP(52)=.FALSE. ,
(PID.TID 0000.0001) > PTRACERS_initialFile(52)='../input/input_ocmip/seawifs_chl_p78.bin',
(PID.TID 0000.0001) ># tracer 53 - PHY32
(PID.TID 0000.0001) > PTRACERS_names(53)='Phy32',
(PID.TID 0000.0001) > PTRACERS_units(53)='mmol P/m^3'
(PID.TID 0000.0001) > PTRACERS_advScheme(53)=33,
(PID.TID 0000.0001) > PTRACERS_diffKh(53)=0.E3,
(PID.TID 0000.0001) > PTRACERS_diffKr(53)=1.E-5,
(PID.TID 0000.0001) > PTRACERS_useGMRedi(53)=.TRUE. ,
(PID.TID 0000.0001) > PTRACERS_useKPP(53)=.FALSE. ,
(PID.TID 0000.0001) > PTRACERS_initialFile(53)='../input/input_ocmip/seawifs_chl_p78.bin',
(PID.TID 0000.0001) ># tracer 54 - PHY33
(PID.TID 0000.0001) > PTRACERS_names(54)='Phy33',
(PID.TID 0000.0001) > PTRACERS_units(54)='mmol P/m^3'
(PID.TID 0000.0001) > PTRACERS_advScheme(54)=33,
(PID.TID 0000.0001) > PTRACERS_diffKh(54)=0.E3,
(PID.TID 0000.0001) > PTRACERS_diffKr(54)=1.E-5,
(PID.TID 0000.0001) > PTRACERS_useGMRedi(54)=.TRUE. ,
(PID.TID 0000.0001) > PTRACERS_useKPP(54)=.FALSE. ,
(PID.TID 0000.0001) > PTRACERS_initialFile(54)='../input/input_ocmip/seawifs_chl_p78.bin',
(PID.TID 0000.0001) ># tracer 55 - PHY34
(PID.TID 0000.0001) > PTRACERS_names(55)='Phy34',
(PID.TID 0000.0001) > PTRACERS_units(55)='mmol P/m^3'
(PID.TID 0000.0001) > PTRACERS_advScheme(55)=33,
(PID.TID 0000.0001) > PTRACERS_diffKh(55)=0.E3,
(PID.TID 0000.0001) > PTRACERS_diffKr(55)=1.E-5,
(PID.TID 0000.0001) > PTRACERS_useGMRedi(55)=.TRUE. ,
(PID.TID 0000.0001) > PTRACERS_useKPP(55)=.FALSE. ,
(PID.TID 0000.0001) > PTRACERS_initialFile(55)='../input/input_ocmip/seawifs_chl_p78.bin',
(PID.TID 0000.0001) ># tracer 56 - PHY35
(PID.TID 0000.0001) > PTRACERS_names(56)='Phy35',
(PID.TID 0000.0001) > PTRACERS_units(56)='mmol P/m^3'
(PID.TID 0000.0001) > PTRACERS_advScheme(56)=33,
(PID.TID 0000.0001) > PTRACERS_diffKh(56)=0.E3,
(PID.TID 0000.0001) > PTRACERS_diffKr(56)=1.E-5,
(PID.TID 0000.0001) > PTRACERS_useGMRedi(56)=.TRUE. ,
(PID.TID 0000.0001) > PTRACERS_useKPP(56)=.FALSE. ,
(PID.TID 0000.0001) > PTRACERS_initialFile(56)='../input/input_ocmip/seawifs_chl_p78.bin',
(PID.TID 0000.0001) ># tracer 57 - PHY36
(PID.TID 0000.0001) > PTRACERS_names(57)='Phy36',
(PID.TID 0000.0001) > PTRACERS_units(57)='mmol P/m^3'
(PID.TID 0000.0001) > PTRACERS_advScheme(57)=33,
(PID.TID 0000.0001) > PTRACERS_diffKh(57)=0.E3,
(PID.TID 0000.0001) > PTRACERS_diffKr(57)=1.E-5,
(PID.TID 0000.0001) > PTRACERS_useGMRedi(57)=.TRUE. ,
(PID.TID 0000.0001) > PTRACERS_useKPP(57)=.FALSE. ,
(PID.TID 0000.0001) > PTRACERS_initialFile(57)='../input/input_ocmip/seawifs_chl_p78.bin',
(PID.TID 0000.0001) ># tracer 58 - PHY37
(PID.TID 0000.0001) > PTRACERS_names(58)='Phy37',
(PID.TID 0000.0001) > PTRACERS_units(58)='mmol P/m^3'
(PID.TID 0000.0001) > PTRACERS_advScheme(58)=33,
(PID.TID 0000.0001) > PTRACERS_diffKh(58)=0.E3,
(PID.TID 0000.0001) > PTRACERS_diffKr(58)=1.E-5,
(PID.TID 0000.0001) > PTRACERS_useGMRedi(58)=.TRUE. ,
(PID.TID 0000.0001) > PTRACERS_useKPP(58)=.FALSE. ,
(PID.TID 0000.0001) > PTRACERS_initialFile(58)='../input/input_ocmip/seawifs_chl_p78.bin',
(PID.TID 0000.0001) ># tracer 59 - PHY38
(PID.TID 0000.0001) > PTRACERS_names(59)='Phy38',
(PID.TID 0000.0001) > PTRACERS_units(59)='mmol P/m^3'
(PID.TID 0000.0001) > PTRACERS_advScheme(59)=33,
(PID.TID 0000.0001) > PTRACERS_diffKh(59)=0.E3,
(PID.TID 0000.0001) > PTRACERS_diffKr(59)=1.E-5,
(PID.TID 0000.0001) > PTRACERS_useGMRedi(59)=.TRUE. ,
(PID.TID 0000.0001) > PTRACERS_useKPP(59)=.FALSE. ,
(PID.TID 0000.0001) > PTRACERS_initialFile(59)='../input/input_ocmip/seawifs_chl_p78.bin',
(PID.TID 0000.0001) ># tracer 60 - PHY39
(PID.TID 0000.0001) > PTRACERS_names(60)='Phy39',
(PID.TID 0000.0001) > PTRACERS_units(60)='mmol P/m^3'
(PID.TID 0000.0001) > PTRACERS_advScheme(60)=33,
(PID.TID 0000.0001) > PTRACERS_diffKh(60)=0.E3,
(PID.TID 0000.0001) > PTRACERS_diffKr(60)=1.E-5,
(PID.TID 0000.0001) > PTRACERS_useGMRedi(60)=.TRUE. ,
(PID.TID 0000.0001) > PTRACERS_useKPP(60)=.FALSE. ,
(PID.TID 0000.0001) > PTRACERS_initialFile(60)='../input/input_ocmip/seawifs_chl_p78.bin',
(PID.TID 0000.0001) ># tracer 61 - PHY40
(PID.TID 0000.0001) > PTRACERS_names(61)='Phy40',
(PID.TID 0000.0001) > PTRACERS_units(61)='mmol P/m^3'
(PID.TID 0000.0001) > PTRACERS_advScheme(61)=33,
(PID.TID 0000.0001) > PTRACERS_diffKh(61)=0.E3,
(PID.TID 0000.0001) > PTRACERS_diffKr(61)=1.E-5,
(PID.TID 0000.0001) > PTRACERS_useGMRedi(61)=.TRUE. ,
(PID.TID 0000.0001) > PTRACERS_useKPP(61)=.FALSE. ,
(PID.TID 0000.0001) > PTRACERS_initialFile(61)='../input/input_ocmip/seawifs_chl_p78.bin',
(PID.TID 0000.0001) ># tracer 62 - PHY41
(PID.TID 0000.0001) > PTRACERS_names(62)='Phy41',
(PID.TID 0000.0001) > PTRACERS_units(62)='mmol P/m^3'
(PID.TID 0000.0001) > PTRACERS_advScheme(62)=33,
(PID.TID 0000.0001) > PTRACERS_diffKh(62)=0.E3,
(PID.TID 0000.0001) > PTRACERS_diffKr(62)=1.E-5,
(PID.TID 0000.0001) > PTRACERS_useGMRedi(62)=.TRUE. ,
(PID.TID 0000.0001) > PTRACERS_useKPP(62)=.FALSE. ,
(PID.TID 0000.0001) > PTRACERS_initialFile(62)='../input/input_ocmip/seawifs_chl_p78.bin',
(PID.TID 0000.0001) ># tracer 63 - PHY42
(PID.TID 0000.0001) > PTRACERS_names(63)='Phy42',
(PID.TID 0000.0001) > PTRACERS_units(63)='mmol P/m^3'
(PID.TID 0000.0001) > PTRACERS_advScheme(63)=33,
(PID.TID 0000.0001) > PTRACERS_diffKh(63)=0.E3,
(PID.TID 0000.0001) > PTRACERS_diffKr(63)=1.E-5,
(PID.TID 0000.0001) > PTRACERS_useGMRedi(63)=.TRUE. ,
(PID.TID 0000.0001) > PTRACERS_useKPP(63)=.FALSE. ,
(PID.TID 0000.0001) > PTRACERS_initialFile(63)='../input/input_ocmip/seawifs_chl_p78.bin',
(PID.TID 0000.0001) ># tracer 64 - PHY43
(PID.TID 0000.0001) > PTRACERS_names(64)='Phy43',
(PID.TID 0000.0001) > PTRACERS_units(64)='mmol P/m^3'
(PID.TID 0000.0001) > PTRACERS_advScheme(64)=33,
(PID.TID 0000.0001) > PTRACERS_diffKh(64)=0.E3,
(PID.TID 0000.0001) > PTRACERS_diffKr(64)=1.E-5,
(PID.TID 0000.0001) > PTRACERS_useGMRedi(64)=.TRUE. ,
(PID.TID 0000.0001) > PTRACERS_useKPP(64)=.FALSE. ,
(PID.TID 0000.0001) > PTRACERS_initialFile(64)='../input/input_ocmip/seawifs_chl_p78.bin',
(PID.TID 0000.0001) ># tracer 65 - PHY44
(PID.TID 0000.0001) > PTRACERS_names(65)='Phy44',
(PID.TID 0000.0001) > PTRACERS_units(65)='mmol P/m^3'
(PID.TID 0000.0001) > PTRACERS_advScheme(65)=33,
(PID.TID 0000.0001) > PTRACERS_diffKh(65)=0.E3,
(PID.TID 0000.0001) > PTRACERS_diffKr(65)=1.E-5,
(PID.TID 0000.0001) > PTRACERS_useGMRedi(65)=.TRUE. ,
(PID.TID 0000.0001) > PTRACERS_useKPP(65)=.FALSE. ,
(PID.TID 0000.0001) > PTRACERS_initialFile(65)='../input/input_ocmip/seawifs_chl_p78.bin',
(PID.TID 0000.0001) ># tracer 66 - PHY45
(PID.TID 0000.0001) > PTRACERS_names(66)='Phy45',
(PID.TID 0000.0001) > PTRACERS_units(66)='mmol P/m^3'
(PID.TID 0000.0001) > PTRACERS_advScheme(66)=33,
(PID.TID 0000.0001) > PTRACERS_diffKh(66)=0.E3,
(PID.TID 0000.0001) > PTRACERS_diffKr(66)=1.E-5,
(PID.TID 0000.0001) > PTRACERS_useGMRedi(66)=.TRUE. ,
(PID.TID 0000.0001) > PTRACERS_useKPP(66)=.FALSE. ,
(PID.TID 0000.0001) > PTRACERS_initialFile(66)='../input/input_ocmip/seawifs_chl_p78.bin',
(PID.TID 0000.0001) ># tracer 67 - PHY46
(PID.TID 0000.0001) > PTRACERS_names(67)='Phy46',
(PID.TID 0000.0001) > PTRACERS_units(67)='mmol P/m^3'
(PID.TID 0000.0001) > PTRACERS_advScheme(67)=33,
(PID.TID 0000.0001) > PTRACERS_diffKh(67)=0.E3,
(PID.TID 0000.0001) > PTRACERS_diffKr(67)=1.E-5,
(PID.TID 0000.0001) > PTRACERS_useGMRedi(67)=.TRUE. ,
(PID.TID 0000.0001) > PTRACERS_useKPP(67)=.FALSE. ,
(PID.TID 0000.0001) > PTRACERS_initialFile(67)='../input/input_ocmip/seawifs_chl_p78.bin',
(PID.TID 0000.0001) ># tracer 68 - PHY47
(PID.TID 0000.0001) > PTRACERS_names(68)='Phy47',
(PID.TID 0000.0001) > PTRACERS_units(68)='mmol P/m^3'
(PID.TID 0000.0001) > PTRACERS_advScheme(68)=33,
(PID.TID 0000.0001) > PTRACERS_diffKh(68)=0.E3,
(PID.TID 0000.0001) > PTRACERS_diffKr(68)=1.E-5,
(PID.TID 0000.0001) > PTRACERS_useGMRedi(68)=.TRUE. ,
(PID.TID 0000.0001) > PTRACERS_useKPP(68)=.FALSE. ,
(PID.TID 0000.0001) > PTRACERS_initialFile(68)='../input/input_ocmip/seawifs_chl_p78.bin',
(PID.TID 0000.0001) ># tracer 69 - PHY48
(PID.TID 0000.0001) > PTRACERS_names(69)='Phy48',
(PID.TID 0000.0001) > PTRACERS_units(69)='mmol P/m^3'
(PID.TID 0000.0001) > PTRACERS_advScheme(69)=33,
(PID.TID 0000.0001) > PTRACERS_diffKh(69)=0.E3,
(PID.TID 0000.0001) > PTRACERS_diffKr(69)=1.E-5,
(PID.TID 0000.0001) > PTRACERS_useGMRedi(69)=.TRUE. ,
(PID.TID 0000.0001) > PTRACERS_useKPP(69)=.FALSE. ,
(PID.TID 0000.0001) > PTRACERS_initialFile(69)='../input/input_ocmip/seawifs_chl_p78.bin',
(PID.TID 0000.0001) ># tracer 70 - PHY49
(PID.TID 0000.0001) > PTRACERS_names(70)='Phy49',
(PID.TID 0000.0001) > PTRACERS_units(70)='mmol P/m^3'
(PID.TID 0000.0001) > PTRACERS_advScheme(70)=33,
(PID.TID 0000.0001) > PTRACERS_diffKh(70)=0.E3,
(PID.TID 0000.0001) > PTRACERS_diffKr(70)=1.E-5,
(PID.TID 0000.0001) > PTRACERS_useGMRedi(70)=.TRUE. ,
(PID.TID 0000.0001) > PTRACERS_useKPP(70)=.FALSE. ,
(PID.TID 0000.0001) > PTRACERS_initialFile(70)='../input/input_ocmip/seawifs_chl_p78.bin',
(PID.TID 0000.0001) ># tracer 71 - PHY50
(PID.TID 0000.0001) > PTRACERS_names(71)='Phy50',
(PID.TID 0000.0001) > PTRACERS_units(71)='mmol P/m^3'
(PID.TID 0000.0001) > PTRACERS_advScheme(71)=33,
(PID.TID 0000.0001) > PTRACERS_diffKh(71)=0.E3,
(PID.TID 0000.0001) > PTRACERS_diffKr(71)=1.E-5,
(PID.TID 0000.0001) > PTRACERS_useGMRedi(71)=.TRUE. ,
(PID.TID 0000.0001) > PTRACERS_useKPP(71)=.FALSE. ,
(PID.TID 0000.0001) > PTRACERS_initialFile(71)='../input/input_ocmip/seawifs_chl_p78.bin',
(PID.TID 0000.0001) ># tracer 72 - PHY51
(PID.TID 0000.0001) > PTRACERS_names(72)='Phy51',
(PID.TID 0000.0001) > PTRACERS_units(72)='mmol P/m^3'
(PID.TID 0000.0001) > PTRACERS_advScheme(72)=33,
(PID.TID 0000.0001) > PTRACERS_diffKh(72)=0.E3,
(PID.TID 0000.0001) > PTRACERS_diffKr(72)=1.E-5,
(PID.TID 0000.0001) > PTRACERS_useGMRedi(72)=.TRUE. ,
(PID.TID 0000.0001) > PTRACERS_useKPP(72)=.FALSE. ,
(PID.TID 0000.0001) > PTRACERS_initialFile(72)='../input/input_ocmip/seawifs_chl_p78.bin',
(PID.TID 0000.0001) ># tracer 73 - PHY52
(PID.TID 0000.0001) > PTRACERS_names(73)='Phy52',
(PID.TID 0000.0001) > PTRACERS_units(73)='mmol P/m^3'
(PID.TID 0000.0001) > PTRACERS_advScheme(73)=33,
(PID.TID 0000.0001) > PTRACERS_diffKh(73)=0.E3,
(PID.TID 0000.0001) > PTRACERS_diffKr(73)=1.E-5,
(PID.TID 0000.0001) > PTRACERS_useGMRedi(73)=.TRUE. ,
(PID.TID 0000.0001) > PTRACERS_useKPP(73)=.FALSE. ,
(PID.TID 0000.0001) > PTRACERS_initialFile(73)='../input/input_ocmip/seawifs_chl_p78.bin',
(PID.TID 0000.0001) ># tracer 74 - PHY53
(PID.TID 0000.0001) > PTRACERS_names(74)='Phy53',
(PID.TID 0000.0001) > PTRACERS_units(74)='mmol P/m^3'
(PID.TID 0000.0001) > PTRACERS_advScheme(74)=33,
(PID.TID 0000.0001) > PTRACERS_diffKh(74)=0.E3,
(PID.TID 0000.0001) > PTRACERS_diffKr(74)=1.E-5,
(PID.TID 0000.0001) > PTRACERS_useGMRedi(74)=.TRUE. ,
(PID.TID 0000.0001) > PTRACERS_useKPP(74)=.FALSE. ,
(PID.TID 0000.0001) > PTRACERS_initialFile(74)='../input/input_ocmip/seawifs_chl_p78.bin',
(PID.TID 0000.0001) ># tracer 75 - PHY54
(PID.TID 0000.0001) > PTRACERS_names(75)='Phy54',
(PID.TID 0000.0001) > PTRACERS_units(75)='mmol P/m^3'
(PID.TID 0000.0001) > PTRACERS_advScheme(75)=33,
(PID.TID 0000.0001) > PTRACERS_diffKh(75)=0.E3,
(PID.TID 0000.0001) > PTRACERS_diffKr(75)=1.E-5,
(PID.TID 0000.0001) > PTRACERS_useGMRedi(75)=.TRUE. ,
(PID.TID 0000.0001) > PTRACERS_useKPP(75)=.FALSE. ,
(PID.TID 0000.0001) > PTRACERS_initialFile(75)='../input/input_ocmip/seawifs_chl_p78.bin',
(PID.TID 0000.0001) ># tracer 76 - PHY55
(PID.TID 0000.0001) > PTRACERS_names(76)='Phy55',
(PID.TID 0000.0001) > PTRACERS_units(76)='mmol P/m^3'
(PID.TID 0000.0001) > PTRACERS_advScheme(76)=33,
(PID.TID 0000.0001) > PTRACERS_diffKh(76)=0.E3,
(PID.TID 0000.0001) > PTRACERS_diffKr(76)=1.E-5,
(PID.TID 0000.0001) > PTRACERS_useGMRedi(76)=.TRUE. ,
(PID.TID 0000.0001) > PTRACERS_useKPP(76)=.FALSE. ,
(PID.TID 0000.0001) > PTRACERS_initialFile(76)='../input/input_ocmip/seawifs_chl_p78.bin',
(PID.TID 0000.0001) ># tracer 77 - PHY56
(PID.TID 0000.0001) > PTRACERS_names(77)='Phy56',
(PID.TID 0000.0001) > PTRACERS_units(77)='mmol P/m^3'
(PID.TID 0000.0001) > PTRACERS_advScheme(77)=33,
(PID.TID 0000.0001) > PTRACERS_diffKh(77)=0.E3,
(PID.TID 0000.0001) > PTRACERS_diffKr(77)=1.E-5,
(PID.TID 0000.0001) > PTRACERS_useGMRedi(77)=.TRUE. ,
(PID.TID 0000.0001) > PTRACERS_useKPP(77)=.FALSE. ,
(PID.TID 0000.0001) > PTRACERS_initialFile(77)='../input/input_ocmip/seawifs_chl_p78.bin',
(PID.TID 0000.0001) ># tracer 78 - PHY57
(PID.TID 0000.0001) > PTRACERS_names(78)='Phy57',
(PID.TID 0000.0001) > PTRACERS_units(78)='mmol P/m^3'
(PID.TID 0000.0001) > PTRACERS_advScheme(78)=33,
(PID.TID 0000.0001) > PTRACERS_diffKh(78)=0.E3,
(PID.TID 0000.0001) > PTRACERS_diffKr(78)=1.E-5,
(PID.TID 0000.0001) > PTRACERS_useGMRedi(78)=.TRUE. ,
(PID.TID 0000.0001) > PTRACERS_useKPP(78)=.FALSE. ,
(PID.TID 0000.0001) > PTRACERS_initialFile(78)='../input/input_ocmip/seawifs_chl_p78.bin',
(PID.TID 0000.0001) ># tracer 79 - PHY58
(PID.TID 0000.0001) > PTRACERS_names(79)='Phy58',
(PID.TID 0000.0001) > PTRACERS_units(79)='mmol P/m^3'
(PID.TID 0000.0001) > PTRACERS_advScheme(79)=33,
(PID.TID 0000.0001) > PTRACERS_diffKh(79)=0.E3,
(PID.TID 0000.0001) > PTRACERS_diffKr(79)=1.E-5,
(PID.TID 0000.0001) > PTRACERS_useGMRedi(79)=.TRUE. ,
(PID.TID 0000.0001) > PTRACERS_useKPP(79)=.FALSE. ,
(PID.TID 0000.0001) > PTRACERS_initialFile(79)='../input/input_ocmip/seawifs_chl_p78.bin',
(PID.TID 0000.0001) ># tracer 80 - PHY59
(PID.TID 0000.0001) > PTRACERS_names(80)='Phy59',
(PID.TID 0000.0001) > PTRACERS_units(80)='mmol P/m^3'
(PID.TID 0000.0001) > PTRACERS_advScheme(80)=33,
(PID.TID 0000.0001) > PTRACERS_diffKh(80)=0.E3,
(PID.TID 0000.0001) > PTRACERS_diffKr(80)=1.E-5,
(PID.TID 0000.0001) > PTRACERS_useGMRedi(80)=.TRUE. ,
(PID.TID 0000.0001) > PTRACERS_useKPP(80)=.FALSE. ,
(PID.TID 0000.0001) > PTRACERS_initialFile(80)='../input/input_ocmip/seawifs_chl_p78.bin',
(PID.TID 0000.0001) ># tracer 81 - PHY60
(PID.TID 0000.0001) > PTRACERS_names(81)='Phy60',
(PID.TID 0000.0001) > PTRACERS_units(81)='mmol P/m^3'
(PID.TID 0000.0001) > PTRACERS_advScheme(81)=33,
(PID.TID 0000.0001) > PTRACERS_diffKh(81)=0.E3,
(PID.TID 0000.0001) > PTRACERS_diffKr(81)=1.E-5,
(PID.TID 0000.0001) > PTRACERS_useGMRedi(81)=.TRUE. ,
(PID.TID 0000.0001) > PTRACERS_useKPP(81)=.FALSE. ,
(PID.TID 0000.0001) > PTRACERS_initialFile(81)='../input/input_ocmip/seawifs_chl_p78.bin',
(PID.TID 0000.0001) ># tracer 82 - PHY61
(PID.TID 0000.0001) > PTRACERS_names(82)='Phy61',
(PID.TID 0000.0001) > PTRACERS_units(82)='mmol P/m^3'
(PID.TID 0000.0001) > PTRACERS_advScheme(82)=33,
(PID.TID 0000.0001) > PTRACERS_diffKh(82)=0.E3,
(PID.TID 0000.0001) > PTRACERS_diffKr(82)=1.E-5,
(PID.TID 0000.0001) > PTRACERS_useGMRedi(82)=.TRUE. ,
(PID.TID 0000.0001) > PTRACERS_useKPP(82)=.FALSE. ,
(PID.TID 0000.0001) > PTRACERS_initialFile(82)='../input/input_ocmip/seawifs_chl_p78.bin',
(PID.TID 0000.0001) ># tracer 83 - PHY62
(PID.TID 0000.0001) > PTRACERS_names(83)='Phy62',
(PID.TID 0000.0001) > PTRACERS_units(83)='mmol P/m^3'
(PID.TID 0000.0001) > PTRACERS_advScheme(83)=33,
(PID.TID 0000.0001) > PTRACERS_diffKh(83)=0.E3,
(PID.TID 0000.0001) > PTRACERS_diffKr(83)=1.E-5,
(PID.TID 0000.0001) > PTRACERS_useGMRedi(83)=.TRUE. ,
(PID.TID 0000.0001) > PTRACERS_useKPP(83)=.FALSE. ,
(PID.TID 0000.0001) > PTRACERS_initialFile(83)='../input/input_ocmip/seawifs_chl_p78.bin',
(PID.TID 0000.0001) ># tracer 84 - PHY63
(PID.TID 0000.0001) > PTRACERS_names(84)='Phy63',
(PID.TID 0000.0001) > PTRACERS_units(84)='mmol P/m^3'
(PID.TID 0000.0001) > PTRACERS_advScheme(84)=33,
(PID.TID 0000.0001) > PTRACERS_diffKh(84)=0.E3,
(PID.TID 0000.0001) > PTRACERS_diffKr(84)=1.E-5,
(PID.TID 0000.0001) > PTRACERS_useGMRedi(84)=.TRUE. ,
(PID.TID 0000.0001) > PTRACERS_useKPP(84)=.FALSE. ,
(PID.TID 0000.0001) > PTRACERS_initialFile(84)='../input/input_ocmip/seawifs_chl_p78.bin',
(PID.TID 0000.0001) ># tracer 85 - PHY64
(PID.TID 0000.0001) > PTRACERS_names(85)='Phy64',
(PID.TID 0000.0001) > PTRACERS_units(85)='mmol P/m^3'
(PID.TID 0000.0001) > PTRACERS_advScheme(85)=33,
(PID.TID 0000.0001) > PTRACERS_diffKh(85)=0.E3,
(PID.TID 0000.0001) > PTRACERS_diffKr(85)=1.E-5,
(PID.TID 0000.0001) > PTRACERS_useGMRedi(85)=.TRUE. ,
(PID.TID 0000.0001) > PTRACERS_useKPP(85)=.FALSE. ,
(PID.TID 0000.0001) > PTRACERS_initialFile(85)='../input/input_ocmip/seawifs_chl_p78.bin',
(PID.TID 0000.0001) ># tracer 86 - PHY65
(PID.TID 0000.0001) > PTRACERS_names(86)='Phy65',
(PID.TID 0000.0001) > PTRACERS_units(86)='mmol P/m^3'
(PID.TID 0000.0001) > PTRACERS_advScheme(86)=33,
(PID.TID 0000.0001) > PTRACERS_diffKh(86)=0.E3,
(PID.TID 0000.0001) > PTRACERS_diffKr(86)=1.E-5,
(PID.TID 0000.0001) > PTRACERS_useGMRedi(86)=.TRUE. ,
(PID.TID 0000.0001) > PTRACERS_useKPP(86)=.FALSE. ,
(PID.TID 0000.0001) > PTRACERS_initialFile(86)='../input/input_ocmip/seawifs_chl_p78.bin',
(PID.TID 0000.0001) ># tracer 87 - PHY66
(PID.TID 0000.0001) > PTRACERS_names(87)='Phy66',
(PID.TID 0000.0001) > PTRACERS_units(87)='mmol P/m^3'
(PID.TID 0000.0001) > PTRACERS_advScheme(87)=33,
(PID.TID 0000.0001) > PTRACERS_diffKh(87)=0.E3,
(PID.TID 0000.0001) > PTRACERS_diffKr(87)=1.E-5,
(PID.TID 0000.0001) > PTRACERS_useGMRedi(87)=.TRUE. ,
(PID.TID 0000.0001) > PTRACERS_useKPP(87)=.FALSE. ,
(PID.TID 0000.0001) > PTRACERS_initialFile(87)='../input/input_ocmip/seawifs_chl_p78.bin',
(PID.TID 0000.0001) ># tracer 88 - PHY67
(PID.TID 0000.0001) > PTRACERS_names(88)='Phy67',
(PID.TID 0000.0001) > PTRACERS_units(88)='mmol P/m^3'
(PID.TID 0000.0001) > PTRACERS_advScheme(88)=33,
(PID.TID 0000.0001) > PTRACERS_diffKh(88)=0.E3,
(PID.TID 0000.0001) > PTRACERS_diffKr(88)=1.E-5,
(PID.TID 0000.0001) > PTRACERS_useGMRedi(88)=.TRUE. ,
(PID.TID 0000.0001) > PTRACERS_useKPP(88)=.FALSE. ,
(PID.TID 0000.0001) > PTRACERS_initialFile(88)='../input/input_ocmip/seawifs_chl_p78.bin',
(PID.TID 0000.0001) ># tracer 89 - PHY68
(PID.TID 0000.0001) > PTRACERS_names(89)='Phy68',
(PID.TID 0000.0001) > PTRACERS_units(89)='mmol P/m^3'
(PID.TID 0000.0001) > PTRACERS_advScheme(89)=33,
(PID.TID 0000.0001) > PTRACERS_diffKh(89)=0.E3,
(PID.TID 0000.0001) > PTRACERS_diffKr(89)=1.E-5,
(PID.TID 0000.0001) > PTRACERS_useGMRedi(89)=.TRUE. ,
(PID.TID 0000.0001) > PTRACERS_useKPP(89)=.FALSE. ,
(PID.TID 0000.0001) > PTRACERS_initialFile(89)='../input/input_ocmip/seawifs_chl_p78.bin',
(PID.TID 0000.0001) ># tracer 90 - PHY69
(PID.TID 0000.0001) > PTRACERS_names(90)='Phy69',
(PID.TID 0000.0001) > PTRACERS_units(90)='mmol P/m^3'
(PID.TID 0000.0001) > PTRACERS_advScheme(90)=33,
(PID.TID 0000.0001) > PTRACERS_diffKh(90)=0.E3,
(PID.TID 0000.0001) > PTRACERS_diffKr(90)=1.E-5,
(PID.TID 0000.0001) > PTRACERS_useGMRedi(90)=.TRUE. ,
(PID.TID 0000.0001) > PTRACERS_useKPP(90)=.FALSE. ,
(PID.TID 0000.0001) > PTRACERS_initialFile(90)='../input/input_ocmip/seawifs_chl_p78.bin',
(PID.TID 0000.0001) ># tracer 91 - PHY70
(PID.TID 0000.0001) > PTRACERS_names(91)='Phy70',
(PID.TID 0000.0001) > PTRACERS_units(91)='mmol P/m^3'
(PID.TID 0000.0001) > PTRACERS_advScheme(91)=33,
(PID.TID 0000.0001) > PTRACERS_diffKh(91)=0.E3,
(PID.TID 0000.0001) > PTRACERS_diffKr(91)=1.E-5,
(PID.TID 0000.0001) > PTRACERS_useGMRedi(91)=.TRUE. ,
(PID.TID 0000.0001) > PTRACERS_useKPP(91)=.FALSE. ,
(PID.TID 0000.0001) > PTRACERS_initialFile(91)='../input/input_ocmip/seawifs_chl_p78.bin',
(PID.TID 0000.0001) ># tracer 92 - PHY71
(PID.TID 0000.0001) > PTRACERS_names(92)='Phy71',
(PID.TID 0000.0001) > PTRACERS_units(92)='mmol P/m^3'
(PID.TID 0000.0001) > PTRACERS_advScheme(92)=33,
(PID.TID 0000.0001) > PTRACERS_diffKh(92)=0.E3,
(PID.TID 0000.0001) > PTRACERS_diffKr(92)=1.E-5,
(PID.TID 0000.0001) > PTRACERS_useGMRedi(92)=.TRUE. ,
(PID.TID 0000.0001) > PTRACERS_useKPP(92)=.FALSE. ,
(PID.TID 0000.0001) > PTRACERS_initialFile(92)='../input/input_ocmip/seawifs_chl_p78.bin',
(PID.TID 0000.0001) ># tracer 93 - PHY72
(PID.TID 0000.0001) > PTRACERS_names(93)='Phy72',
(PID.TID 0000.0001) > PTRACERS_units(93)='mmol P/m^3'
(PID.TID 0000.0001) > PTRACERS_advScheme(93)=33,
(PID.TID 0000.0001) > PTRACERS_diffKh(93)=0.E3,
(PID.TID 0000.0001) > PTRACERS_diffKr(93)=1.E-5,
(PID.TID 0000.0001) > PTRACERS_useGMRedi(93)=.TRUE. ,
(PID.TID 0000.0001) > PTRACERS_useKPP(93)=.FALSE. ,
(PID.TID 0000.0001) > PTRACERS_initialFile(93)='../input/input_ocmip/seawifs_chl_p78.bin',
(PID.TID 0000.0001) ># tracer 94 - PHY73
(PID.TID 0000.0001) > PTRACERS_names(94)='Phy73',
(PID.TID 0000.0001) > PTRACERS_units(94)='mmol P/m^3'
(PID.TID 0000.0001) > PTRACERS_advScheme(94)=33,
(PID.TID 0000.0001) > PTRACERS_diffKh(94)=0.E3,
(PID.TID 0000.0001) > PTRACERS_diffKr(94)=1.E-5,
(PID.TID 0000.0001) > PTRACERS_useGMRedi(94)=.TRUE. ,
(PID.TID 0000.0001) > PTRACERS_useKPP(94)=.FALSE. ,
(PID.TID 0000.0001) > PTRACERS_initialFile(94)='../input/input_ocmip/seawifs_chl_p78.bin',
(PID.TID 0000.0001) ># tracer 95 - PHY74
(PID.TID 0000.0001) > PTRACERS_names(95)='Phy74',
(PID.TID 0000.0001) > PTRACERS_units(95)='mmol P/m^3'
(PID.TID 0000.0001) > PTRACERS_advScheme(95)=33,
(PID.TID 0000.0001) > PTRACERS_diffKh(95)=0.E3,
(PID.TID 0000.0001) > PTRACERS_diffKr(95)=1.E-5,
(PID.TID 0000.0001) > PTRACERS_useGMRedi(95)=.TRUE. ,
(PID.TID 0000.0001) > PTRACERS_useKPP(95)=.FALSE. ,
(PID.TID 0000.0001) > PTRACERS_initialFile(95)='../input/input_ocmip/seawifs_chl_p78.bin',
(PID.TID 0000.0001) ># tracer 96 - PHY75
(PID.TID 0000.0001) > PTRACERS_names(96)='Phy75',
(PID.TID 0000.0001) > PTRACERS_units(96)='mmol P/m^3'
(PID.TID 0000.0001) > PTRACERS_advScheme(96)=33,
(PID.TID 0000.0001) > PTRACERS_diffKh(96)=0.E3,
(PID.TID 0000.0001) > PTRACERS_diffKr(96)=1.E-5,
(PID.TID 0000.0001) > PTRACERS_useGMRedi(96)=.TRUE. ,
(PID.TID 0000.0001) > PTRACERS_useKPP(96)=.FALSE. ,
(PID.TID 0000.0001) > PTRACERS_initialFile(96)='../input/input_ocmip/seawifs_chl_p78.bin',
(PID.TID 0000.0001) ># tracer 97 - PHY76
(PID.TID 0000.0001) > PTRACERS_names(97)='Phy76',
(PID.TID 0000.0001) > PTRACERS_units(97)='mmol P/m^3'
(PID.TID 0000.0001) > PTRACERS_advScheme(97)=33,
(PID.TID 0000.0001) > PTRACERS_diffKh(97)=0.E3,
(PID.TID 0000.0001) > PTRACERS_diffKr(97)=1.E-5,
(PID.TID 0000.0001) > PTRACERS_useGMRedi(97)=.TRUE. ,
(PID.TID 0000.0001) > PTRACERS_useKPP(97)=.FALSE. ,
(PID.TID 0000.0001) > PTRACERS_initialFile(97)='../input/input_ocmip/seawifs_chl_p78.bin',
(PID.TID 0000.0001) ># tracer 98 - PHY77
(PID.TID 0000.0001) > PTRACERS_names(98)='Phy77',
(PID.TID 0000.0001) > PTRACERS_units(98)='mmol P/m^3'
(PID.TID 0000.0001) > PTRACERS_advScheme(98)=33,
(PID.TID 0000.0001) > PTRACERS_diffKh(98)=0.E3,
(PID.TID 0000.0001) > PTRACERS_diffKr(98)=1.E-5,
(PID.TID 0000.0001) > PTRACERS_useGMRedi(98)=.TRUE. ,
(PID.TID 0000.0001) > PTRACERS_useKPP(98)=.FALSE. ,
(PID.TID 0000.0001) > PTRACERS_initialFile(98)='../input/input_ocmip/seawifs_chl_p78.bin',
(PID.TID 0000.0001) ># tracer 99 - PHY78
(PID.TID 0000.0001) > PTRACERS_names(99)='Phy78',
(PID.TID 0000.0001) > PTRACERS_units(99)='mmol P/m^3'
(PID.TID 0000.0001) > PTRACERS_advScheme(99)=33,
(PID.TID 0000.0001) > PTRACERS_diffKh(99)=0.E3,
(PID.TID 0000.0001) > PTRACERS_diffKr(99)=1.E-5,
(PID.TID 0000.0001) > PTRACERS_useGMRedi(99)=.TRUE. ,
(PID.TID 0000.0001) > PTRACERS_useKPP(99)=.FALSE. ,
(PID.TID 0000.0001) > PTRACERS_initialFile(99)='../input/input_ocmip/seawifs_chl_p78.bin',
(PID.TID 0000.0001) > /
(PID.TID 0000.0001) 
(PID.TID 0000.0001)  PTRACERS_READPARMS: finished reading data.ptracers
(PID.TID 0000.0001) // ===================================
(PID.TID 0000.0001) // PTRACERS parameters
(PID.TID 0000.0001) // ===================================
(PID.TID 0000.0001) PTRACERS_numInUse = /* number of tracers */
(PID.TID 0000.0001)                      99
(PID.TID 0000.0001)     ;
(PID.TID 0000.0001) PTRACERS_Iter0 = /* timestep number when tracers are initialized */
(PID.TID 0000.0001)                 5644800
(PID.TID 0000.0001)     ;
(PID.TID 0000.0001) PTRACERS_addSrelax2EmP =/* add Salt relaxation to EmP */
(PID.TID 0000.0001)                   F
(PID.TID 0000.0001)     ;
(PID.TID 0000.0001) PTRACERS_dTLev =   /* Ptracer timestep ( s ) */
(PID.TID 0000.0001)    15 @  4.320000000000000E+04              /* K =  1: 15 */
(PID.TID 0000.0001)     ;
(PID.TID 0000.0001) PTRACERS_dumpFreq = /* Frequency^-1 for snapshot output (s) */
(PID.TID 0000.0001)                 3.110400000000000E+07
(PID.TID 0000.0001)     ;
(PID.TID 0000.0001) PTRACERS_taveFreq = /* Frequency^-1 for time-Aver. output (s) */
(PID.TID 0000.0001)                 2.592000000000000E+06
(PID.TID 0000.0001)     ;
(PID.TID 0000.0001) PTRACERS_useRecords = /* all tracers in 1 file */
(PID.TID 0000.0001)                   F
(PID.TID 0000.0001)     ;
(PID.TID 0000.0001) PTRACERS_timeave_mnc = /* use MNC for Tave output */
(PID.TID 0000.0001)                   T
(PID.TID 0000.0001)     ;
(PID.TID 0000.0001) PTRACERS_snapshot_mnc = /* use MNC for snapshot output */
(PID.TID 0000.0001)                   T
(PID.TID 0000.0001)     ;
(PID.TID 0000.0001) PTRACERS_pickup_write_mnc = /* use MNC for writing pickups */
(PID.TID 0000.0001)                   F
(PID.TID 0000.0001)     ;
(PID.TID 0000.0001) PTRACERS_pickup_read_mnc = /* use MNC for reading pickups */
(PID.TID 0000.0001)                   F
(PID.TID 0000.0001)     ;
(PID.TID 0000.0001)  -----------------------------------
(PID.TID 0000.0001)  tracer number :    1
(PID.TID 0000.0001) PTRACERS_names = /* Tracer short name */
(PID.TID 0000.0001)               'PO4'
(PID.TID 0000.0001)     ;
(PID.TID 0000.0001) PTRACERS_long_names = /* Tracer long name */
(PID.TID 0000.0001)               ''
(PID.TID 0000.0001)     ;
(PID.TID 0000.0001) PTRACERS_ioLabel = /* tracer IO Label */
(PID.TID 0000.0001)               '01'
(PID.TID 0000.0001)     ;
(PID.TID 0000.0001) PTRACERS_advScheme = /* Advection Scheme */
(PID.TID 0000.0001)                      33
(PID.TID 0000.0001)     ;
(PID.TID 0000.0001) PTRACERS_ImplVertAdv = /* implicit vert. advection flag */
(PID.TID 0000.0001)                   F
(PID.TID 0000.0001)     ;
(PID.TID 0000.0001) PTRACERS_diffKh = /* Laplacian Diffusivity */
(PID.TID 0000.0001)                 0.000000000000000E+00
(PID.TID 0000.0001)     ;
(PID.TID 0000.0001) PTRACERS_diffK4 = /* Biharmonic Diffusivity */
(PID.TID 0000.0001)                 0.000000000000000E+00
(PID.TID 0000.0001)     ;
(PID.TID 0000.0001) PTRACERS_diffKrNr = /* Vertical Diffusivity */
(PID.TID 0000.0001)    15 @  1.000000000000000E-05              /* K =  1: 15 */
(PID.TID 0000.0001)     ;
(PID.TID 0000.0001) PTRACERS_useGMRedi = /* apply GM-Redi */
(PID.TID 0000.0001)                   T
(PID.TID 0000.0001)     ;
(PID.TID 0000.0001) PTRACERS_useDWNSLP = /* apply DOWN-SLOPE Flow */
(PID.TID 0000.0001)                   F
(PID.TID 0000.0001)     ;
(PID.TID 0000.0001) PTRACERS_useKPP = /* apply KPP scheme */
(PID.TID 0000.0001)                   F
(PID.TID 0000.0001)     ;
(PID.TID 0000.0001) PTRACERS_ref = /* Reference vertical profile */
(PID.TID 0000.0001)    15 @  0.000000000000000E+00              /* K =  1: 15 */
(PID.TID 0000.0001)     ;
(PID.TID 0000.0001) PTRACERS_EvPrRn =/* tracer conc. in Evap. & Rain */
(PID.TID 0000.0001)                 1.234567000000000E+05
(PID.TID 0000.0001)     ;
(PID.TID 0000.0001)  -----------------------------------
(PID.TID 0000.0001)  tracer number :    2
(PID.TID 0000.0001) PTRACERS_names = /* Tracer short name */
(PID.TID 0000.0001)               'NO3'
(PID.TID 0000.0001)     ;
(PID.TID 0000.0001) PTRACERS_long_names = /* Tracer long name */
(PID.TID 0000.0001)               ''
(PID.TID 0000.0001)     ;
(PID.TID 0000.0001) PTRACERS_ioLabel = /* tracer IO Label */
(PID.TID 0000.0001)               '02'
(PID.TID 0000.0001)     ;
(PID.TID 0000.0001) PTRACERS_advScheme = /* Advection Scheme */
(PID.TID 0000.0001)                      33
(PID.TID 0000.0001)     ;
(PID.TID 0000.0001) PTRACERS_ImplVertAdv = /* implicit vert. advection flag */
(PID.TID 0000.0001)                   F
(PID.TID 0000.0001)     ;
(PID.TID 0000.0001) PTRACERS_diffKh = /* Laplacian Diffusivity */
(PID.TID 0000.0001)                 0.000000000000000E+00
(PID.TID 0000.0001)     ;
(PID.TID 0000.0001) PTRACERS_diffK4 = /* Biharmonic Diffusivity */
(PID.TID 0000.0001)                 0.000000000000000E+00
(PID.TID 0000.0001)     ;
(PID.TID 0000.0001) PTRACERS_diffKrNr = /* Vertical Diffusivity */
(PID.TID 0000.0001)    15 @  1.000000000000000E-05              /* K =  1: 15 */
(PID.TID 0000.0001)     ;
(PID.TID 0000.0001) PTRACERS_useGMRedi = /* apply GM-Redi */
(PID.TID 0000.0001)                   T
(PID.TID 0000.0001)     ;
(PID.TID 0000.0001) PTRACERS_useDWNSLP = /* apply DOWN-SLOPE Flow */
(PID.TID 0000.0001)                   F
(PID.TID 0000.0001)     ;
(PID.TID 0000.0001) PTRACERS_useKPP = /* apply KPP scheme */
(PID.TID 0000.0001)                   F
(PID.TID 0000.0001)     ;
(PID.TID 0000.0001) PTRACERS_ref = /* Reference vertical profile */
(PID.TID 0000.0001)    15 @  0.000000000000000E+00              /* K =  1: 15 */
(PID.TID 0000.0001)     ;
(PID.TID 0000.0001) PTRACERS_EvPrRn =/* tracer conc. in Evap. & Rain */
(PID.TID 0000.0001)                 1.234567000000000E+05
(PID.TID 0000.0001)     ;
(PID.TID 0000.0001)  -----------------------------------
(PID.TID 0000.0001)  tracer number :    3
(PID.TID 0000.0001) PTRACERS_names = /* Tracer short name */
(PID.TID 0000.0001)               'FeT'
(PID.TID 0000.0001)     ;
(PID.TID 0000.0001) PTRACERS_long_names = /* Tracer long name */
(PID.TID 0000.0001)               ''
(PID.TID 0000.0001)     ;
(PID.TID 0000.0001) PTRACERS_ioLabel = /* tracer IO Label */
(PID.TID 0000.0001)               '03'
(PID.TID 0000.0001)     ;
(PID.TID 0000.0001) PTRACERS_advScheme = /* Advection Scheme */
(PID.TID 0000.0001)                      33
(PID.TID 0000.0001)     ;
(PID.TID 0000.0001) PTRACERS_ImplVertAdv = /* implicit vert. advection flag */
(PID.TID 0000.0001)                   F
(PID.TID 0000.0001)     ;
(PID.TID 0000.0001) PTRACERS_diffKh = /* Laplacian Diffusivity */
(PID.TID 0000.0001)                 0.000000000000000E+00
(PID.TID 0000.0001)     ;
(PID.TID 0000.0001) PTRACERS_diffK4 = /* Biharmonic Diffusivity */
(PID.TID 0000.0001)                 0.000000000000000E+00
(PID.TID 0000.0001)     ;
(PID.TID 0000.0001) PTRACERS_diffKrNr = /* Vertical Diffusivity */
(PID.TID 0000.0001)    15 @  1.000000000000000E-05              /* K =  1: 15 */
(PID.TID 0000.0001)     ;
(PID.TID 0000.0001) PTRACERS_useGMRedi = /* apply GM-Redi */
(PID.TID 0000.0001)                   T
(PID.TID 0000.0001)     ;
(PID.TID 0000.0001) PTRACERS_useDWNSLP = /* apply DOWN-SLOPE Flow */
(PID.TID 0000.0001)                   F
(PID.TID 0000.0001)     ;
(PID.TID 0000.0001) PTRACERS_useKPP = /* apply KPP scheme */
(PID.TID 0000.0001)                   F
(PID.TID 0000.0001)     ;
(PID.TID 0000.0001) PTRACERS_ref = /* Reference vertical profile */
(PID.TID 0000.0001)    15 @  0.000000000000000E+00              /* K =  1: 15 */
(PID.TID 0000.0001)     ;
(PID.TID 0000.0001) PTRACERS_EvPrRn =/* tracer conc. in Evap. & Rain */
(PID.TID 0000.0001)                 1.234567000000000E+05
(PID.TID 0000.0001)     ;
(PID.TID 0000.0001)  -----------------------------------
(PID.TID 0000.0001)  tracer number :    4
(PID.TID 0000.0001) PTRACERS_names = /* Tracer short name */
(PID.TID 0000.0001)               'SiO2'
(PID.TID 0000.0001)     ;
(PID.TID 0000.0001) PTRACERS_long_names = /* Tracer long name */
(PID.TID 0000.0001)               ''
(PID.TID 0000.0001)     ;
(PID.TID 0000.0001) PTRACERS_ioLabel = /* tracer IO Label */
(PID.TID 0000.0001)               '04'
(PID.TID 0000.0001)     ;
(PID.TID 0000.0001) PTRACERS_advScheme = /* Advection Scheme */
(PID.TID 0000.0001)                      33
(PID.TID 0000.0001)     ;
(PID.TID 0000.0001) PTRACERS_ImplVertAdv = /* implicit vert. advection flag */
(PID.TID 0000.0001)                   F
(PID.TID 0000.0001)     ;
(PID.TID 0000.0001) PTRACERS_diffKh = /* Laplacian Diffusivity */
(PID.TID 0000.0001)                 0.000000000000000E+00
(PID.TID 0000.0001)     ;
(PID.TID 0000.0001) PTRACERS_diffK4 = /* Biharmonic Diffusivity */
(PID.TID 0000.0001)                 0.000000000000000E+00
(PID.TID 0000.0001)     ;
(PID.TID 0000.0001) PTRACERS_diffKrNr = /* Vertical Diffusivity */
(PID.TID 0000.0001)    15 @  1.000000000000000E-05              /* K =  1: 15 */
(PID.TID 0000.0001)     ;
(PID.TID 0000.0001) PTRACERS_useGMRedi = /* apply GM-Redi */
(PID.TID 0000.0001)                   T
(PID.TID 0000.0001)     ;
(PID.TID 0000.0001) PTRACERS_useDWNSLP = /* apply DOWN-SLOPE Flow */
(PID.TID 0000.0001)                   F
(PID.TID 0000.0001)     ;
(PID.TID 0000.0001) PTRACERS_useKPP = /* apply KPP scheme */
(PID.TID 0000.0001)                   F
(PID.TID 0000.0001)     ;
(PID.TID 0000.0001) PTRACERS_ref = /* Reference vertical profile */
(PID.TID 0000.0001)    15 @  0.000000000000000E+00              /* K =  1: 15 */
(PID.TID 0000.0001)     ;
(PID.TID 0000.0001) PTRACERS_EvPrRn =/* tracer conc. in Evap. & Rain */
(PID.TID 0000.0001)                 1.234567000000000E+05
(PID.TID 0000.0001)     ;
(PID.TID 0000.0001)  -----------------------------------
(PID.TID 0000.0001)  tracer number :    5
(PID.TID 0000.0001) PTRACERS_names = /* Tracer short name */
(PID.TID 0000.0001)               'DOP'
(PID.TID 0000.0001)     ;
(PID.TID 0000.0001) PTRACERS_long_names = /* Tracer long name */
(PID.TID 0000.0001)               ''
(PID.TID 0000.0001)     ;
(PID.TID 0000.0001) PTRACERS_ioLabel = /* tracer IO Label */
(PID.TID 0000.0001)               '05'
(PID.TID 0000.0001)     ;
(PID.TID 0000.0001) PTRACERS_advScheme = /* Advection Scheme */
(PID.TID 0000.0001)                      33
(PID.TID 0000.0001)     ;
(PID.TID 0000.0001) PTRACERS_ImplVertAdv = /* implicit vert. advection flag */
(PID.TID 0000.0001)                   F
(PID.TID 0000.0001)     ;
(PID.TID 0000.0001) PTRACERS_diffKh = /* Laplacian Diffusivity */
(PID.TID 0000.0001)                 0.000000000000000E+00
(PID.TID 0000.0001)     ;
(PID.TID 0000.0001) PTRACERS_diffK4 = /* Biharmonic Diffusivity */
(PID.TID 0000.0001)                 0.000000000000000E+00
(PID.TID 0000.0001)     ;
(PID.TID 0000.0001) PTRACERS_diffKrNr = /* Vertical Diffusivity */
(PID.TID 0000.0001)    15 @  1.000000000000000E-05              /* K =  1: 15 */
(PID.TID 0000.0001)     ;
(PID.TID 0000.0001) PTRACERS_useGMRedi = /* apply GM-Redi */
(PID.TID 0000.0001)                   T
(PID.TID 0000.0001)     ;
(PID.TID 0000.0001) PTRACERS_useDWNSLP = /* apply DOWN-SLOPE Flow */
(PID.TID 0000.0001)                   F
(PID.TID 0000.0001)     ;
(PID.TID 0000.0001) PTRACERS_useKPP = /* apply KPP scheme */
(PID.TID 0000.0001)                   F
(PID.TID 0000.0001)     ;
(PID.TID 0000.0001) PTRACERS_ref = /* Reference vertical profile */
(PID.TID 0000.0001)    15 @  0.000000000000000E+00              /* K =  1: 15 */
(PID.TID 0000.0001)     ;
(PID.TID 0000.0001) PTRACERS_EvPrRn =/* tracer conc. in Evap. & Rain */
(PID.TID 0000.0001)                 1.234567000000000E+05
(PID.TID 0000.0001)     ;
(PID.TID 0000.0001)  -----------------------------------
(PID.TID 0000.0001)  tracer number :    6
(PID.TID 0000.0001) PTRACERS_names = /* Tracer short name */
(PID.TID 0000.0001)               'DON'
(PID.TID 0000.0001)     ;
(PID.TID 0000.0001) PTRACERS_long_names = /* Tracer long name */
(PID.TID 0000.0001)               ''
(PID.TID 0000.0001)     ;
(PID.TID 0000.0001) PTRACERS_ioLabel = /* tracer IO Label */
(PID.TID 0000.0001)               '06'
(PID.TID 0000.0001)     ;
(PID.TID 0000.0001) PTRACERS_advScheme = /* Advection Scheme */
(PID.TID 0000.0001)                      33
(PID.TID 0000.0001)     ;
(PID.TID 0000.0001) PTRACERS_ImplVertAdv = /* implicit vert. advection flag */
(PID.TID 0000.0001)                   F
(PID.TID 0000.0001)     ;
(PID.TID 0000.0001) PTRACERS_diffKh = /* Laplacian Diffusivity */
(PID.TID 0000.0001)                 0.000000000000000E+00
(PID.TID 0000.0001)     ;
(PID.TID 0000.0001) PTRACERS_diffK4 = /* Biharmonic Diffusivity */
(PID.TID 0000.0001)                 0.000000000000000E+00
(PID.TID 0000.0001)     ;
(PID.TID 0000.0001) PTRACERS_diffKrNr = /* Vertical Diffusivity */
(PID.TID 0000.0001)    15 @  1.000000000000000E-05              /* K =  1: 15 */
(PID.TID 0000.0001)     ;
(PID.TID 0000.0001) PTRACERS_useGMRedi = /* apply GM-Redi */
(PID.TID 0000.0001)                   T
(PID.TID 0000.0001)     ;
(PID.TID 0000.0001) PTRACERS_useDWNSLP = /* apply DOWN-SLOPE Flow */
(PID.TID 0000.0001)                   F
(PID.TID 0000.0001)     ;
(PID.TID 0000.0001) PTRACERS_useKPP = /* apply KPP scheme */
(PID.TID 0000.0001)                   F
(PID.TID 0000.0001)     ;
(PID.TID 0000.0001) PTRACERS_ref = /* Reference vertical profile */
(PID.TID 0000.0001)    15 @  0.000000000000000E+00              /* K =  1: 15 */
(PID.TID 0000.0001)     ;
(PID.TID 0000.0001) PTRACERS_EvPrRn =/* tracer conc. in Evap. & Rain */
(PID.TID 0000.0001)                 1.234567000000000E+05
(PID.TID 0000.0001)     ;
(PID.TID 0000.0001)  -----------------------------------
(PID.TID 0000.0001)  tracer number :    7
(PID.TID 0000.0001) PTRACERS_names = /* Tracer short name */
(PID.TID 0000.0001)               'DOFe'
(PID.TID 0000.0001)     ;
(PID.TID 0000.0001) PTRACERS_long_names = /* Tracer long name */
(PID.TID 0000.0001)               ''
(PID.TID 0000.0001)     ;
(PID.TID 0000.0001) PTRACERS_ioLabel = /* tracer IO Label */
(PID.TID 0000.0001)               '07'
(PID.TID 0000.0001)     ;
(PID.TID 0000.0001) PTRACERS_advScheme = /* Advection Scheme */
(PID.TID 0000.0001)                      33
(PID.TID 0000.0001)     ;
(PID.TID 0000.0001) PTRACERS_ImplVertAdv = /* implicit vert. advection flag */
(PID.TID 0000.0001)                   F
(PID.TID 0000.0001)     ;
(PID.TID 0000.0001) PTRACERS_diffKh = /* Laplacian Diffusivity */
(PID.TID 0000.0001)                 0.000000000000000E+00
(PID.TID 0000.0001)     ;
(PID.TID 0000.0001) PTRACERS_diffK4 = /* Biharmonic Diffusivity */
(PID.TID 0000.0001)                 0.000000000000000E+00
(PID.TID 0000.0001)     ;
(PID.TID 0000.0001) PTRACERS_diffKrNr = /* Vertical Diffusivity */
(PID.TID 0000.0001)    15 @  1.000000000000000E-05              /* K =  1: 15 */
(PID.TID 0000.0001)     ;
(PID.TID 0000.0001) PTRACERS_useGMRedi = /* apply GM-Redi */
(PID.TID 0000.0001)                   T
(PID.TID 0000.0001)     ;
(PID.TID 0000.0001) PTRACERS_useDWNSLP = /* apply DOWN-SLOPE Flow */
(PID.TID 0000.0001)                   F
(PID.TID 0000.0001)     ;
(PID.TID 0000.0001) PTRACERS_useKPP = /* apply KPP scheme */
(PID.TID 0000.0001)                   F
(PID.TID 0000.0001)     ;
(PID.TID 0000.0001) PTRACERS_ref = /* Reference vertical profile */
(PID.TID 0000.0001)    15 @  0.000000000000000E+00              /* K =  1: 15 */
(PID.TID 0000.0001)     ;
(PID.TID 0000.0001) PTRACERS_EvPrRn =/* tracer conc. in Evap. & Rain */
(PID.TID 0000.0001)                 1.234567000000000E+05
(PID.TID 0000.0001)     ;
(PID.TID 0000.0001)  -----------------------------------
(PID.TID 0000.0001)  tracer number :    8
(PID.TID 0000.0001) PTRACERS_names = /* Tracer short name */
(PID.TID 0000.0001)               'ZOO1P'
(PID.TID 0000.0001)     ;
(PID.TID 0000.0001) PTRACERS_long_names = /* Tracer long name */
(PID.TID 0000.0001)               ''
(PID.TID 0000.0001)     ;
(PID.TID 0000.0001) PTRACERS_ioLabel = /* tracer IO Label */
(PID.TID 0000.0001)               '08'
(PID.TID 0000.0001)     ;
(PID.TID 0000.0001) PTRACERS_advScheme = /* Advection Scheme */
(PID.TID 0000.0001)                      33
(PID.TID 0000.0001)     ;
(PID.TID 0000.0001) PTRACERS_ImplVertAdv = /* implicit vert. advection flag */
(PID.TID 0000.0001)                   F
(PID.TID 0000.0001)     ;
(PID.TID 0000.0001) PTRACERS_diffKh = /* Laplacian Diffusivity */
(PID.TID 0000.0001)                 0.000000000000000E+00
(PID.TID 0000.0001)     ;
[...]
(PID.TID 0000.0001) %MON trcstat_ptracer76_del2       =   4.5849859218004E-07
(PID.TID 0000.0001) %MON trcstat_ptracer77_max        =   3.6174720482476E-03
(PID.TID 0000.0001) %MON trcstat_ptracer77_min        =   9.4894443703670E-12
(PID.TID 0000.0001) %MON trcstat_ptracer77_mean       =   5.4405752448899E-06
(PID.TID 0000.0001) %MON trcstat_ptracer77_sd         =   5.9641193578009E-05
(PID.TID 0000.0001) %MON trcstat_ptracer77_del2       =   4.8629001293158E-07
(PID.TID 0000.0001) %MON trcstat_ptracer78_max        =   3.6174720482476E-03
(PID.TID 0000.0001) %MON trcstat_ptracer78_min        =   9.4894443703670E-12
(PID.TID 0000.0001) %MON trcstat_ptracer78_mean       =   3.7608763211804E-06
(PID.TID 0000.0001) %MON trcstat_ptracer78_sd         =   3.5070714473377E-05
(PID.TID 0000.0001) %MON trcstat_ptracer78_del2       =   4.2784693421856E-07
(PID.TID 0000.0001) %MON trcstat_ptracer79_max        =   3.4608144215857E-03
(PID.TID 0000.0001) %MON trcstat_ptracer79_min        =   9.5273705933926E-12
(PID.TID 0000.0001) %MON trcstat_ptracer79_mean       =   4.7659248234891E-06
(PID.TID 0000.0001) %MON trcstat_ptracer79_sd         =   4.3821089818780E-05
(PID.TID 0000.0001) %MON trcstat_ptracer79_del2       =   4.2401873713483E-07
(PID.TID 0000.0001) %MON trcstat_ptracer80_max        =   3.7589481233831E-03
(PID.TID 0000.0001) %MON trcstat_ptracer80_min        =   9.5273705963309E-12
(PID.TID 0000.0001) %MON trcstat_ptracer80_mean       =   4.0898386348245E-06
(PID.TID 0000.0001) %MON trcstat_ptracer80_sd         =   4.0693068922370E-05
(PID.TID 0000.0001) %MON trcstat_ptracer80_del2       =   4.8757485556017E-07
(PID.TID 0000.0001) %MON trcstat_ptracer81_max        =   3.6174720482476E-03
(PID.TID 0000.0001) %MON trcstat_ptracer81_min        =   9.4894443703670E-12
(PID.TID 0000.0001) %MON trcstat_ptracer81_mean       =   3.6817333331813E-06
(PID.TID 0000.0001) %MON trcstat_ptracer81_sd         =   3.5584721148949E-05
(PID.TID 0000.0001) %MON trcstat_ptracer81_del2       =   4.4116903925872E-07
(PID.TID 0000.0001) %MON trcstat_ptracer82_max        =   3.4608144215859E-03
(PID.TID 0000.0001) %MON trcstat_ptracer82_min        =   9.5273705933926E-12
(PID.TID 0000.0001) %MON trcstat_ptracer82_mean       =   4.7312888358588E-06
(PID.TID 0000.0001) %MON trcstat_ptracer82_sd         =   5.0383367368641E-05
(PID.TID 0000.0001) %MON trcstat_ptracer82_del2       =   4.7945540033159E-07
(PID.TID 0000.0001) %MON trcstat_ptracer83_max        =   4.2837047925236E-03
(PID.TID 0000.0001) %MON trcstat_ptracer83_min        =   9.5273705963309E-12
(PID.TID 0000.0001) %MON trcstat_ptracer83_mean       =   6.9817810335740E-06
(PID.TID 0000.0001) %MON trcstat_ptracer83_sd         =   8.2268975551052E-05
(PID.TID 0000.0001) %MON trcstat_ptracer83_del2       =   5.5076338910800E-07
(PID.TID 0000.0001) %MON trcstat_ptracer84_max        =   3.7565183652139E-03
(PID.TID 0000.0001) %MON trcstat_ptracer84_min        =   9.5273705963309E-12
(PID.TID 0000.0001) %MON trcstat_ptracer84_mean       =   5.6099391684880E-06
(PID.TID 0000.0001) %MON trcstat_ptracer84_sd         =   5.9327327629668E-05
(PID.TID 0000.0001) %MON trcstat_ptracer84_del2       =   5.2477709192612E-07
(PID.TID 0000.0001) %MON trcstat_ptracer85_max        =   3.6181033002779E-03
(PID.TID 0000.0001) %MON trcstat_ptracer85_min        =   9.4894443703670E-12
(PID.TID 0000.0001) %MON trcstat_ptracer85_mean       =   3.5363241060155E-06
(PID.TID 0000.0001) %MON trcstat_ptracer85_sd         =   3.3404452178343E-05
(PID.TID 0000.0001) %MON trcstat_ptracer85_del2       =   4.3105806044715E-07
(PID.TID 0000.0001) %MON trcstat_ptracer86_max        =   3.6174720482476E-03
(PID.TID 0000.0001) %MON trcstat_ptracer86_min        =   9.4894443703670E-12
(PID.TID 0000.0001) %MON trcstat_ptracer86_mean       =   4.2265134232853E-06
(PID.TID 0000.0001) %MON trcstat_ptracer86_sd         =   4.1480008732021E-05
(PID.TID 0000.0001) %MON trcstat_ptracer86_del2       =   4.6142197887518E-07
(PID.TID 0000.0001) %MON trcstat_ptracer87_max        =   3.6174720482476E-03
(PID.TID 0000.0001) %MON trcstat_ptracer87_min        =   9.4894443703670E-12
(PID.TID 0000.0001) %MON trcstat_ptracer87_mean       =   3.3292400326763E-06
(PID.TID 0000.0001) %MON trcstat_ptracer87_sd         =   3.1420119905197E-05
(PID.TID 0000.0001) %MON trcstat_ptracer87_del2       =   4.1850294388755E-07
(PID.TID 0000.0001) %MON trcstat_ptracer88_max        =   3.7565183652139E-03
(PID.TID 0000.0001) %MON trcstat_ptracer88_min        =   9.5273705963309E-12
(PID.TID 0000.0001) %MON trcstat_ptracer88_mean       =   4.5557117812563E-06
(PID.TID 0000.0001) %MON trcstat_ptracer88_sd         =   4.6714684450068E-05
(PID.TID 0000.0001) %MON trcstat_ptracer88_del2       =   4.7220988440887E-07
(PID.TID 0000.0001) %MON trcstat_ptracer89_max        =   3.6174720482476E-03
(PID.TID 0000.0001) %MON trcstat_ptracer89_min        =   9.4894443703670E-12
(PID.TID 0000.0001) %MON trcstat_ptracer89_mean       =   3.4436591913049E-06
(PID.TID 0000.0001) %MON trcstat_ptracer89_sd         =   3.2501371166662E-05
(PID.TID 0000.0001) %MON trcstat_ptracer89_del2       =   4.2307659544451E-07
(PID.TID 0000.0001) %MON trcstat_ptracer90_max        =   3.6178963296779E-03
(PID.TID 0000.0001) %MON trcstat_ptracer90_min        =   9.4894443703670E-12
(PID.TID 0000.0001) %MON trcstat_ptracer90_mean       =   3.2960301162974E-06
(PID.TID 0000.0001) %MON trcstat_ptracer90_sd         =   3.1533320826259E-05
(PID.TID 0000.0001) %MON trcstat_ptracer90_del2       =   4.1964354642766E-07
(PID.TID 0000.0001) %MON trcstat_ptracer91_max        =   3.6174720482476E-03
(PID.TID 0000.0001) %MON trcstat_ptracer91_min        =   9.4894443703670E-12
(PID.TID 0000.0001) %MON trcstat_ptracer91_mean       =   3.5910846495969E-06
(PID.TID 0000.0001) %MON trcstat_ptracer91_sd         =   3.3413536072897E-05
(PID.TID 0000.0001) %MON trcstat_ptracer91_del2       =   4.2322873131463E-07
(PID.TID 0000.0001) %MON trcstat_ptracer92_max        =   3.6174720482476E-03
(PID.TID 0000.0001) %MON trcstat_ptracer92_min        =   9.4894443703670E-12
(PID.TID 0000.0001) %MON trcstat_ptracer92_mean       =   6.1557453740022E-06
(PID.TID 0000.0001) %MON trcstat_ptracer92_sd         =   6.7127967569951E-05
(PID.TID 0000.0001) %MON trcstat_ptracer92_del2       =   4.9750015422251E-07
(PID.TID 0000.0001) %MON trcstat_ptracer93_max        =   4.2508092572332E-03
(PID.TID 0000.0001) %MON trcstat_ptracer93_min        =   9.5273705933926E-12
(PID.TID 0000.0001) %MON trcstat_ptracer93_mean       =   5.4850382804269E-06
(PID.TID 0000.0001) %MON trcstat_ptracer93_sd         =   6.0682978310100E-05
(PID.TID 0000.0001) %MON trcstat_ptracer93_del2       =   5.5826601775178E-07
(PID.TID 0000.0001) %MON trcstat_ptracer94_max        =   3.4608144215858E-03
(PID.TID 0000.0001) %MON trcstat_ptracer94_min        =   9.5273705933926E-12
(PID.TID 0000.0001) %MON trcstat_ptracer94_mean       =   4.4660373681213E-06
(PID.TID 0000.0001) %MON trcstat_ptracer94_sd         =   4.4682204158478E-05
(PID.TID 0000.0001) %MON trcstat_ptracer94_del2       =   4.4598826872801E-07
(PID.TID 0000.0001) %MON trcstat_ptracer95_max        =   3.7582064854639E-03
(PID.TID 0000.0001) %MON trcstat_ptracer95_min        =   9.5273705963309E-12
(PID.TID 0000.0001) %MON trcstat_ptracer95_mean       =   3.5055719175316E-06
(PID.TID 0000.0001) %MON trcstat_ptracer95_sd         =   3.3428811771119E-05
(PID.TID 0000.0001) %MON trcstat_ptracer95_del2       =   4.4303057773260E-07
(PID.TID 0000.0001) %MON trcstat_ptracer96_max        =   3.6174720482476E-03
(PID.TID 0000.0001) %MON trcstat_ptracer96_min        =   9.4894443703670E-12
(PID.TID 0000.0001) %MON trcstat_ptracer96_mean       =   4.2999416149142E-06
(PID.TID 0000.0001) %MON trcstat_ptracer96_sd         =   3.9541921214439E-05
(PID.TID 0000.0001) %MON trcstat_ptracer96_del2       =   4.2350447453986E-07
(PID.TID 0000.0001) %MON trcstat_ptracer97_max        =   3.8689760028296E-03
(PID.TID 0000.0001) %MON trcstat_ptracer97_min        =   9.4894443703670E-12
(PID.TID 0000.0001) %MON trcstat_ptracer97_mean       =   4.0779635336566E-06
(PID.TID 0000.0001) %MON trcstat_ptracer97_sd         =   4.1750864923187E-05
(PID.TID 0000.0001) %MON trcstat_ptracer97_del2       =   4.9521427465712E-07
(PID.TID 0000.0001) %MON trcstat_ptracer98_max        =   3.6174720482476E-03
(PID.TID 0000.0001) %MON trcstat_ptracer98_min        =   9.4894443703670E-12
(PID.TID 0000.0001) %MON trcstat_ptracer98_mean       =   4.0872984861081E-06
(PID.TID 0000.0001) %MON trcstat_ptracer98_sd         =   3.9926143540288E-05
(PID.TID 0000.0001) %MON trcstat_ptracer98_del2       =   4.5240465575232E-07
(PID.TID 0000.0001) %MON trcstat_ptracer99_max        =   3.7534197683563E-03
(PID.TID 0000.0001) %MON trcstat_ptracer99_min        =   9.4894443703670E-12
(PID.TID 0000.0001) %MON trcstat_ptracer99_mean       =   4.6075549383468E-06
(PID.TID 0000.0001) %MON trcstat_ptracer99_sd         =   5.0332681306465E-05
(PID.TID 0000.0001) %MON trcstat_ptracer99_del2       =   5.2403886927073E-07
(PID.TID 0000.0001) // =======================================================
(PID.TID 0000.0001) // End MONITOR ptracers field statistics
(PID.TID 0000.0001) // =======================================================
(PID.TID 0000.0001) %CHECKPOINT   5644804 ckptA
(PID.TID 0000.0001)   Seconds in section "ALL                    [THE_MODEL_MAIN]":
(PID.TID 0000.0001)           User time:   148.03999999999999
(PID.TID 0000.0001)         System time:   4.1799999999999997
(PID.TID 0000.0001)     Wall clock time:   204.05809402465820
(PID.TID 0000.0001)          No. starts:           1
(PID.TID 0000.0001)           No. stops:           1
(PID.TID 0000.0001)   Seconds in section "INITIALISE_FIXED       [THE_MODEL_MAIN]":
(PID.TID 0000.0001)           User time:  0.58999999999999997
(PID.TID 0000.0001)         System time:  0.14000000000000001
(PID.TID 0000.0001)     Wall clock time:   4.8008139133453369
(PID.TID 0000.0001)          No. starts:           1
(PID.TID 0000.0001)           No. stops:           1
(PID.TID 0000.0001)   Seconds in section "THE_MAIN_LOOP          [THE_MODEL_MAIN]":
(PID.TID 0000.0001)           User time:   147.44999999999999
(PID.TID 0000.0001)         System time:   4.0400000000000000
(PID.TID 0000.0001)     Wall clock time:   199.25639390945435
(PID.TID 0000.0001)          No. starts:           1
(PID.TID 0000.0001)           No. stops:           1
(PID.TID 0000.0001)   Seconds in section "INITIALISE_VARIA    [THE_MAIN_LOOP]":
(PID.TID 0000.0001)           User time:   4.1000000000000005
(PID.TID 0000.0001)         System time:   3.6600000000000001
(PID.TID 0000.0001)     Wall clock time:   41.154017210006714
(PID.TID 0000.0001)          No. starts:           1
(PID.TID 0000.0001)           No. stops:           1
(PID.TID 0000.0001)   Seconds in section "MAIN LOOP           [THE_MAIN_LOOP]":
(PID.TID 0000.0001)           User time:   143.34999999999999
(PID.TID 0000.0001)         System time:  0.37999999999999945
(PID.TID 0000.0001)     Wall clock time:   158.10233402252197
(PID.TID 0000.0001)          No. starts:           1
(PID.TID 0000.0001)           No. stops:           1
(PID.TID 0000.0001)   Seconds in section "FORWARD_STEP        [THE_MAIN_LOOP]":
(PID.TID 0000.0001)           User time:   143.34999999999999
(PID.TID 0000.0001)         System time:  0.37999999999999901
(PID.TID 0000.0001)     Wall clock time:   158.10227417945862
(PID.TID 0000.0001)          No. starts:           4
(PID.TID 0000.0001)           No. stops:           4
(PID.TID 0000.0001)   Seconds in section "LOAD_FIELDS_DRIVER  [FORWARD_STEP]":
(PID.TID 0000.0001)           User time:   9.9999999999909051E-003
(PID.TID 0000.0001)         System time:   0.0000000000000000
(PID.TID 0000.0001)     Wall clock time:   2.1487474441528320E-002
(PID.TID 0000.0001)          No. starts:           4
(PID.TID 0000.0001)           No. stops:           4
(PID.TID 0000.0001)   Seconds in section "EXTERNAL_FLDS_LOAD [LOAD_FLDS_DRIVER]":
(PID.TID 0000.0001)           User time:   9.9999999999909051E-003
(PID.TID 0000.0001)         System time:   0.0000000000000000
(PID.TID 0000.0001)     Wall clock time:   1.2526988983154297E-002
(PID.TID 0000.0001)          No. starts:           4
(PID.TID 0000.0001)           No. stops:           4
(PID.TID 0000.0001)   Seconds in section "DO_ATMOSPHERIC_PHYS [FORWARD_STEP]":
(PID.TID 0000.0001)           User time:   0.0000000000000000
(PID.TID 0000.0001)         System time:   0.0000000000000000
(PID.TID 0000.0001)     Wall clock time:   5.0783157348632812E-005
(PID.TID 0000.0001)          No. starts:           4
(PID.TID 0000.0001)           No. stops:           4
(PID.TID 0000.0001)   Seconds in section "DO_OCEANIC_PHYS     [FORWARD_STEP]":
(PID.TID 0000.0001)           User time:  0.33000000000001251
(PID.TID 0000.0001)         System time:   0.0000000000000000
(PID.TID 0000.0001)     Wall clock time:  0.32887530326843262
(PID.TID 0000.0001)          No. starts:           4
(PID.TID 0000.0001)           No. stops:           4
(PID.TID 0000.0001)   Seconds in section "GCHEM_CALC_TENDENCY [FORWARD_STEP]":
(PID.TID 0000.0001)           User time:   0.0000000000000000
(PID.TID 0000.0001)         System time:   0.0000000000000000
(PID.TID 0000.0001)     Wall clock time:   4.5776367187500000E-005
(PID.TID 0000.0001)          No. starts:           4
(PID.TID 0000.0001)           No. stops:           4
(PID.TID 0000.0001)   Seconds in section "THERMODYNAMICS      [FORWARD_STEP]":
(PID.TID 0000.0001)           User time:   59.889999999999986
(PID.TID 0000.0001)         System time:   2.9999999999999805E-002
(PID.TID 0000.0001)     Wall clock time:   60.147762060165405
(PID.TID 0000.0001)          No. starts:           4
(PID.TID 0000.0001)           No. stops:           4
(PID.TID 0000.0001)   Seconds in section "DYNAMICS            [FORWARD_STEP]":
(PID.TID 0000.0001)           User time:   1.6700000000000159
(PID.TID 0000.0001)         System time:   0.0000000000000000
(PID.TID 0000.0001)     Wall clock time:   1.6790611743927002
(PID.TID 0000.0001)          No. starts:           4
(PID.TID 0000.0001)           No. stops:           4
(PID.TID 0000.0001)   Seconds in section "SOLVE_FOR_PRESSURE  [FORWARD_STEP]":
(PID.TID 0000.0001)           User time:  0.17000000000000171
(PID.TID 0000.0001)         System time:   0.0000000000000000
(PID.TID 0000.0001)     Wall clock time:  0.17185997962951660
(PID.TID 0000.0001)          No. starts:           4
(PID.TID 0000.0001)           No. stops:           4
(PID.TID 0000.0001)   Seconds in section "MOM_CORRECTION_STEP [FORWARD_STEP]":
(PID.TID 0000.0001)           User time:   3.0000000000001137E-002
(PID.TID 0000.0001)         System time:   0.0000000000000000
(PID.TID 0000.0001)     Wall clock time:   2.8957843780517578E-002
(PID.TID 0000.0001)          No. starts:           4
(PID.TID 0000.0001)           No. stops:           4
(PID.TID 0000.0001)   Seconds in section "INTEGR_CONTINUITY   [FORWARD_STEP]":
(PID.TID 0000.0001)           User time:   4.0000000000006253E-002
(PID.TID 0000.0001)         System time:   0.0000000000000000
(PID.TID 0000.0001)     Wall clock time:   4.6419143676757812E-002
(PID.TID 0000.0001)          No. starts:           4
(PID.TID 0000.0001)           No. stops:           4
(PID.TID 0000.0001)   Seconds in section "TRC_CORRECTION_STEP [FORWARD_STEP]":
(PID.TID 0000.0001)           User time:  0.67999999999999261
(PID.TID 0000.0001)         System time:   0.0000000000000000
(PID.TID 0000.0001)     Wall clock time:  0.67355132102966309
(PID.TID 0000.0001)          No. starts:           4
(PID.TID 0000.0001)           No. stops:           4
(PID.TID 0000.0001)   Seconds in section "GCHEM_FORCING_SEP  [FORWARD_STEP]":
(PID.TID 0000.0001)           User time:   73.859999999999999
(PID.TID 0000.0001)         System time:   2.0000000000000018E-002
(PID.TID 0000.0001)     Wall clock time:   74.127156257629395
(PID.TID 0000.0001)          No. starts:           4
(PID.TID 0000.0001)           No. stops:           4
(PID.TID 0000.0001)   Seconds in section "BLOCKING_EXCHANGES  [FORWARD_STEP]":
(PID.TID 0000.0001)           User time:  0.35999999999998522
(PID.TID 0000.0001)         System time:   0.0000000000000000
(PID.TID 0000.0001)     Wall clock time:  0.35797810554504395
(PID.TID 0000.0001)          No. starts:           4
(PID.TID 0000.0001)           No. stops:           4
(PID.TID 0000.0001)   Seconds in section "DO_STATEVARS_TAVE   [FORWARD_STEP]":
(PID.TID 0000.0001)           User time:   1.0599999999999739
(PID.TID 0000.0001)         System time:   0.0000000000000000
(PID.TID 0000.0001)     Wall clock time:   1.0750589370727539
(PID.TID 0000.0001)          No. starts:           4
(PID.TID 0000.0001)           No. stops:           4
(PID.TID 0000.0001)   Seconds in section "MONITOR             [FORWARD_STEP]":
(PID.TID 0000.0001)           User time:  0.35999999999998522
(PID.TID 0000.0001)         System time:   0.0000000000000000
(PID.TID 0000.0001)     Wall clock time:  0.34988975524902344
(PID.TID 0000.0001)          No. starts:           4
(PID.TID 0000.0001)           No. stops:           4
(PID.TID 0000.0001)   Seconds in section "DO_THE_MODEL_IO     [FORWARD_STEP]":
(PID.TID 0000.0001)           User time:   4.1500000000000341
(PID.TID 0000.0001)         System time:  0.18000000000000016
(PID.TID 0000.0001)     Wall clock time:   18.197947978973389
(PID.TID 0000.0001)          No. starts:           4
(PID.TID 0000.0001)           No. stops:           4
(PID.TID 0000.0001)   Seconds in section "DO_WRITE_PICKUP     [FORWARD_STEP]":
(PID.TID 0000.0001)           User time:  0.73999999999998067
(PID.TID 0000.0001)         System time:  0.14999999999999947
(PID.TID 0000.0001)     Wall clock time:  0.89529991149902344
(PID.TID 0000.0001)          No. starts:           4
(PID.TID 0000.0001)           No. stops:           4
(PID.TID 0000.0001) // ======================================================
(PID.TID 0000.0001) // Tile <-> Tile communication statistics
(PID.TID 0000.0001) // ======================================================
(PID.TID 0000.0001) // o Tile number: 000001
(PID.TID 0000.0001) //         No. X exchanges =              0
(PID.TID 0000.0001) //            Max. X spins =              0
(PID.TID 0000.0001) //            Min. X spins =     1000000000
(PID.TID 0000.0001) //          Total. X spins =              0
(PID.TID 0000.0001) //            Avg. X spins =       0.00E+00
(PID.TID 0000.0001) //         No. Y exchanges =              0
(PID.TID 0000.0001) //            Max. Y spins =              0
(PID.TID 0000.0001) //            Min. Y spins =     1000000000
(PID.TID 0000.0001) //          Total. Y spins =              0
(PID.TID 0000.0001) //            Avg. Y spins =       0.00E+00
(PID.TID 0000.0001) // o Tile number: 000002
(PID.TID 0000.0001) //         No. X exchanges =              0
(PID.TID 0000.0001) //            Max. X spins =              0
(PID.TID 0000.0001) //            Min. X spins =     1000000000
(PID.TID 0000.0001) //          Total. X spins =              0
(PID.TID 0000.0001) //            Avg. X spins =       0.00E+00
(PID.TID 0000.0001) //         No. Y exchanges =              0
(PID.TID 0000.0001) //            Max. Y spins =              0
(PID.TID 0000.0001) //            Min. Y spins =     1000000000
(PID.TID 0000.0001) //          Total. Y spins =              0
(PID.TID 0000.0001) //            Avg. Y spins =       0.00E+00
(PID.TID 0000.0001) // o Thread number: 000001
(PID.TID 0000.0001) //            No. barriers =           8220
(PID.TID 0000.0001) //      Max. barrier spins =              1
(PID.TID 0000.0001) //      Min. barrier spins =              1
(PID.TID 0000.0001) //     Total barrier spins =           8220
(PID.TID 0000.0001) //      Avg. barrier spins =       1.00E+00
PROGRAM MAIN: Execution ended Normally
