(PID.TID 0000.0001) 
(PID.TID 0000.0001) // ======================================================
(PID.TID 0000.0001) //                      MITgcm UV
(PID.TID 0000.0001) //                      =========
(PID.TID 0000.0001) // ======================================================
(PID.TID 0000.0001) // execution environment starting up...
(PID.TID 0000.0001) 
(PID.TID 0000.0001) // MITgcmUV version:  checkpoint61o
(PID.TID 0000.0001) // Build user:        stephd
(PID.TID 0000.0001) // Build host:        gibson
(PID.TID 0000.0001) // Build date:        Tue Jun  9 14:14:25 EDT 2009
(PID.TID 0000.0001) 
(PID.TID 0000.0001) // =======================================================
(PID.TID 0000.0001) // Execution Environment parameter file "eedata"
(PID.TID 0000.0001) // =======================================================
(PID.TID 0000.0001) ># Example "eedata" file
(PID.TID 0000.0001) ># Lines beginning "#" are comments
(PID.TID 0000.0001) ># nTx - No. threads per process in X
(PID.TID 0000.0001) ># nTy - No. threads per process in Y
(PID.TID 0000.0001) > &EEPARMS
(PID.TID 0000.0001) > nTx=1,nTy=1
(PID.TID 0000.0001) > /
(PID.TID 0000.0001) ># Note: Some systems use & as the
(PID.TID 0000.0001) ># namelist terminator. Other systems
(PID.TID 0000.0001) ># use a / character (as shown here).
(PID.TID 0000.0001) 
(PID.TID 0000.0001) // =======================================================
(PID.TID 0000.0001) // Computational Grid Specification ( see files "SIZE.h" )
(PID.TID 0000.0001) //                                  ( and "eedata"       )
(PID.TID 0000.0001) // =======================================================
(PID.TID 0000.0001)      nPx =    1 ; /* No. processes in X */
(PID.TID 0000.0001)      nPy =    1 ; /* No. processes in Y */
(PID.TID 0000.0001)      nSx =    1 ; /* No. tiles in X per process */
(PID.TID 0000.0001)      nSy =    1 ; /* No. tiles in Y per process */
(PID.TID 0000.0001)      sNx =    1 ; /* Tile size in X */
(PID.TID 0000.0001)      sNy =    1 ; /* Tile size in Y */
(PID.TID 0000.0001)      OLx =    2 ; /* Tile overlap distance in X */
(PID.TID 0000.0001)      OLy =    2 ; /* Tile overlap distance in Y */
(PID.TID 0000.0001)      nTx =    1 ; /* No. threads in X per process */
(PID.TID 0000.0001)      nTy =    1 ; /* No. threads in Y per process */
(PID.TID 0000.0001)       Nr =   35 ; /* No. levels in the vertical   */
(PID.TID 0000.0001)       Nx =    1 ; /* Total domain size in X ( = nPx*nSx*sNx ) */
(PID.TID 0000.0001)       Ny =    1 ; /* Total domain size in Y ( = nPy*nSy*sNy ) */
(PID.TID 0000.0001)   nTiles =    1 ; /* Total no. tiles per process ( = nSx*nSy ) */
(PID.TID 0000.0001)   nProcs =    1 ; /* Total no. processes ( = nPx*nPy ) */
(PID.TID 0000.0001) nThreads =    1 ; /* Total no. threads per process ( = nTx*nTy ) */
(PID.TID 0000.0001) usingMPI =    F ; /* Flag used to control whether MPI is in use */
(PID.TID 0000.0001)                   /*  note: To execute a program with MPI calls */
(PID.TID 0000.0001)                   /*  it must be launched appropriately e.g     */
(PID.TID 0000.0001)                   /*  "mpirun -np 64 ......"                    */
(PID.TID 0000.0001) useCoupler=    F ;/* Flag used to control communications with   */
(PID.TID 0000.0001)                   /*  other model components, through a coupler */
(PID.TID 0000.0001) printMapIncludesZeros=    F ; /* print zeros in Std.Output maps */
(PID.TID 0000.0001) maxLengthPrt1D=   65 /* maxLength of 1D array printed to StdOut */
(PID.TID 0000.0001) 
(PID.TID 0000.0001) // ======================================================
(PID.TID 0000.0001) // Mapping of tiles to threads
(PID.TID 0000.0001) // ======================================================
(PID.TID 0000.0001) // -o- Thread   1, tiles (   1:   1,   1:   1)
(PID.TID 0000.0001) 
(PID.TID 0000.0001) // ======================================================
(PID.TID 0000.0001) // Tile <-> Tile connectvity table
(PID.TID 0000.0001) // ======================================================
(PID.TID 0000.0001) // Tile number: 000001 (process no. = 000001)
(PID.TID 0000.0001) //        WEST: Tile = 000001, Process = 000001, Comm = put
(PID.TID 0000.0001) //                bi = 000001, bj = 000001
(PID.TID 0000.0001) //        EAST: Tile = 000001, Process = 000001, Comm = put
(PID.TID 0000.0001) //                bi = 000001, bj = 000001
(PID.TID 0000.0001) //       SOUTH: Tile = 000001, Process = 000001, Comm = put
(PID.TID 0000.0001) //                bi = 000001, bj = 000001
(PID.TID 0000.0001) //       NORTH: Tile = 000001, Process = 000001, Comm = put
(PID.TID 0000.0001) //                bi = 000001, bj = 000001
(PID.TID 0000.0001) 
(PID.TID 0000.0001) // =======================================================
(PID.TID 0000.0001) // Model parameter file "data"
(PID.TID 0000.0001) // =======================================================
(PID.TID 0000.0001) >#
(PID.TID 0000.0001) ># ******************************
(PID.TID 0000.0001) ># Model parameters
(PID.TID 0000.0001) ># Continuous equation parameters
(PID.TID 0000.0001) ># ******************************
(PID.TID 0000.0001) >&PARM01
(PID.TID 0000.0001) >tRef= 26.5, 26.1, 26., 25.5, 25.4, 24.9, 24.5, 24.0, 23.7,
(PID.TID 0000.0001) >      23.3, 23.1, 22.8, 22.5, 22.1, 21.6, 20.6, 19.5, 18.4,
(PID.TID 0000.0001) >      17.3, 16.6, 15.5, 14.6, 13.8, 13.1, 11.6, 10.1, 7.7,
(PID.TID 0000.0001) >      5.3, 4.1, 3.7, 3.7, 3.4, 3.0, 2.8, 2.6,
(PID.TID 0000.0001) >sRef= 35*35.00,
(PID.TID 0000.0001) >no_slip_sides=.false.,
(PID.TID 0000.0001) >no_slip_bottom=.TRUE.,
(PID.TID 0000.0001) >viscAz=0.e0,
(PID.TID 0000.0001) >viscAh=0.e0,
(PID.TID 0000.0001) >diffKhT=1.E2,
(PID.TID 0000.0001) >diffKzT=1.E-4,
(PID.TID 0000.0001) >diffKhS=0.D0,
(PID.TID 0000.0001) >diffKzS=0.D0,
(PID.TID 0000.0001) >beta=1.E-11,
(PID.TID 0000.0001) >tAlpha=2.E-4,
(PID.TID 0000.0001) >sBeta =7.4E-4,
(PID.TID 0000.0001) >gravity=9.81,
(PID.TID 0000.0001) >gBaro=9.81,
(PID.TID 0000.0001) >rigidLid=.TRUE.,
(PID.TID 0000.0001) >implicitFreeSurface=.false.,
(PID.TID 0000.0001) >eosType='JMD95Z',
(PID.TID 0000.0001) >saltStepping=.FALSE.,
(PID.TID 0000.0001) >tempStepping=.TRUE.,
(PID.TID 0000.0001) >tempAdvection=.TRUE.,
(PID.TID 0000.0001) >momStepping=.FALSE.,
(PID.TID 0000.0001) >implicitDiffusion=.true.,
(PID.TID 0000.0001) >implicitViscosity=.true.,
(PID.TID 0000.0001) >allowFreezing=.false.,
(PID.TID 0000.0001) >useSingleCpuIO=.TRUE.,
(PID.TID 0000.0001) >useCDscheme=.FALSE.,
(PID.TID 0000.0001) >tempAdvScheme = 3,
(PID.TID 0000.0001) >saltAdvScheme = 3,
(PID.TID 0000.0001) >/
(PID.TID 0000.0001) >
(PID.TID 0000.0001) ># **************************
(PID.TID 0000.0001) ># Elliptic solver parameters
(PID.TID 0000.0001) ># **************************
(PID.TID 0000.0001) >&PARM02
(PID.TID 0000.0001) >cg2dMaxIters=300,
(PID.TID 0000.0001) >cg2dTargetResidual=1.E-7,
(PID.TID 0000.0001) >/
(PID.TID 0000.0001) >
(PID.TID 0000.0001) ># ************************
(PID.TID 0000.0001) ># Time stepping parameters
(PID.TID 0000.0001) ># ************************
(PID.TID 0000.0001) >&PARM03
(PID.TID 0000.0001) > nIter0=0,
(PID.TID 0000.0001) >#nTimeSteps=86400,
(PID.TID 0000.0001) > nTimeSteps=4,
(PID.TID 0000.0001) > deltaTmom= 3600.,
(PID.TID 0000.0001) > deltaTtracer= 3600.,
(PID.TID 0000.0001) > deltaTClock = 3600.,
(PID.TID 0000.0001) > cAdjFreq    = 0.,
(PID.TID 0000.0001) > abEps=0.1,
(PID.TID 0000.0001) > pChkptFreq  = 31104000.0,
(PID.TID 0000.0001) > chkptFreq   = 31104000.0,
(PID.TID 0000.0001) > dumpFreq    = 31104000.0,
(PID.TID 0000.0001) > taveFreq    = 2592000.,
(PID.TID 0000.0001) >#monitorFreq = 2592000.,
(PID.TID 0000.0001) > monitorFreq = 1.,
(PID.TID 0000.0001) > tauThetaClimRelax=86400.,
(PID.TID 0000.0001) > tauSaltClimRelax=0.,
(PID.TID 0000.0001) > periodicExternalForcing=.TRUE.,
(PID.TID 0000.0001) > externForcingPeriod=2592000.,
(PID.TID 0000.0001) > externForcingCycle=31104000.,
(PID.TID 0000.0001) >/
(PID.TID 0000.0001) >
(PID.TID 0000.0001) ># *******************
(PID.TID 0000.0001) ># Gridding parameters
(PID.TID 0000.0001) ># *******************
(PID.TID 0000.0001) >&PARM04
(PID.TID 0000.0001) >usingCartesianGrid=.FALSE.,
(PID.TID 0000.0001) >usingSphericalPolarGrid=.TRUE.,
(PID.TID 0000.0001) >delX=1*1.E0,
(PID.TID 0000.0001) >delY=1*1.E0,
(PID.TID 0000.0001) >delZ=14*10, 5*15, 4*20, 2*50, 100, 2*150, 200, 300, 3*400, 2*500,
(PID.TID 0000.0001) >xgOrigin=0,
(PID.TID 0000.0001) >ygOrigin=-45.,
(PID.TID 0000.0001) >/
(PID.TID 0000.0001) >
(PID.TID 0000.0001) ># **********
(PID.TID 0000.0001) ># Data Files
(PID.TID 0000.0001) ># **********
(PID.TID 0000.0001) >&PARM05
(PID.TID 0000.0001) >bathyFile=       'input/bathyneg.bin',
(PID.TID 0000.0001) >hydrogThetaFile= 'input/loc1_temp_janprof.bin',
(PID.TID 0000.0001) >hydrogSaltFile=  'input/salt_uniform.bin',
(PID.TID 0000.0001) >zonalWindFile=   'input/loc1_taux_monsurf.bin',
(PID.TID 0000.0001) >meridWindFile=   'input/loc1_tauy_monsurf.bin',
(PID.TID 0000.0001) >thetaClimFile=   'input/loc1_temp_monsurf.bin',
(PID.TID 0000.0001) >saltClimFile=    '',
(PID.TID 0000.0001) >surfQFile=       '',
(PID.TID 0000.0001) >EmPmRFile=       '',
(PID.TID 0000.0001) >/
(PID.TID 0000.0001) 
(PID.TID 0000.0001) S/R INI_PARMS ; starts to read PARM01
(PID.TID 0000.0001) S/R INI_PARMS ; read PARM01 : OK
(PID.TID 0000.0001) S/R INI_PARMS ; starts to read PARM02
(PID.TID 0000.0001) S/R INI_PARMS ; read PARM02 : OK
(PID.TID 0000.0001) S/R INI_PARMS ; starts to read PARM03
(PID.TID 0000.0001) S/R INI_PARMS ; read PARM03 : OK
(PID.TID 0000.0001) S/R INI_PARMS ; starts to read PARM04
(PID.TID 0000.0001) S/R INI_PARMS ; read PARM04 : OK
(PID.TID 0000.0001) S/R INI_PARMS ; starts to read PARM05
(PID.TID 0000.0001) S/R INI_PARMS ; read PARM05 : OK
(PID.TID 0000.0001)  PACKAGES_BOOT: opening data.pkg
(PID.TID 0000.0001)  OPEN_COPY_DATA_FILE: opening file data.pkg
(PID.TID 0000.0001) // =======================================================
(PID.TID 0000.0001) // Parameter file "data.pkg"
(PID.TID 0000.0001) // =======================================================
(PID.TID 0000.0001) ># Packages
(PID.TID 0000.0001) > &PACKAGES
(PID.TID 0000.0001) > usePTRACERS=.TRUE.
(PID.TID 0000.0001) > useGCHEM=.TRUE.,
(PID.TID 0000.0001) > useKPP=.TRUE.,
(PID.TID 0000.0001) > useMNC=.TRUE.,
(PID.TID 0000.0001) > /
(PID.TID 0000.0001) 
(PID.TID 0000.0001)  PACKAGES_BOOT: finished reading data.pkg
(PID.TID 0000.0001)  MNC_READPARMS: opening file 'data.mnc'
(PID.TID 0000.0001)  OPEN_COPY_DATA_FILE: opening file data.mnc
(PID.TID 0000.0001) // =======================================================
(PID.TID 0000.0001) // Parameter file "data.mnc"
(PID.TID 0000.0001) // =======================================================
(PID.TID 0000.0001) ># Example "data.mnc" file
(PID.TID 0000.0001) ># Lines beginning "#" are comments
(PID.TID 0000.0001) > &MNC_01
(PID.TID 0000.0001) ># mnc_echo_gvtypes=.FALSE.,
(PID.TID 0000.0001) ># mnc_use_indir=.FALSE.,
(PID.TID 0000.0001) > mnc_use_outdir=.TRUE.,
(PID.TID 0000.0001) > mnc_outdir_str='dar1d_',
(PID.TID 0000.0001) > mnc_outdir_date=.TRUE.,
(PID.TID 0000.0001) > monitor_mnc=.FALSE.,
(PID.TID 0000.0001) > snapshot_mnc=.TRUE.,
(PID.TID 0000.0001) > timeave_mnc=.TRUE.,
(PID.TID 0000.0001) > pickup_read_mnc=.FALSE.,
(PID.TID 0000.0001) > pickup_write_mnc=.FALSE.,
(PID.TID 0000.0001) > &
(PID.TID 0000.0001) ># Note: Some systems use & as the
(PID.TID 0000.0001) ># namelist terminator. Other systems
(PID.TID 0000.0001) ># use a / character.
(PID.TID 0000.0001) 
(PID.TID 0000.0001)  MNC_READPARMS: finished reading data.mnc
(PID.TID 0000.0001)  KPP_INIT: opening data.kpp
(PID.TID 0000.0001)  OPEN_COPY_DATA_FILE: opening file data.kpp
(PID.TID 0000.0001) // =======================================================
(PID.TID 0000.0001) // Parameter file "data.kpp"
(PID.TID 0000.0001) // =======================================================
(PID.TID 0000.0001) >#
(PID.TID 0000.0001) ># ***************
(PID.TID 0000.0001) ># Open boundaries
(PID.TID 0000.0001) ># ***************
(PID.TID 0000.0001) > &KPP_PARM01
(PID.TID 0000.0001) > KPPmixingMaps   = .FALSE.,
(PID.TID 0000.0001) > KPPwriteState   = .TRUE.,
(PID.TID 0000.0001) > kpp_dumpFreq    = 2592000.
(PID.TID 0000.0001) > kpp_tavefreq    = 2592000.
(PID.TID 0000.0001) > Ricr            = 0.3559
(PID.TID 0000.0001) > Riinfty         = 0.6998
(PID.TID 0000.0001) > &
(PID.TID 0000.0001) >
(PID.TID 0000.0001) 
(PID.TID 0000.0001)  KPP_INIT: finished reading data.kpp
(PID.TID 0000.0001)  PTRACERS_READPARMS: opening data.ptracers
(PID.TID 0000.0001)  OPEN_COPY_DATA_FILE: opening file data.ptracers
(PID.TID 0000.0001) // =======================================================
(PID.TID 0000.0001) // Parameter file "data.ptracers"
(PID.TID 0000.0001) // =======================================================
(PID.TID 0000.0001) > &PTRACERS_PARM01
(PID.TID 0000.0001) > PTRACERS_numInUse=23,
(PID.TID 0000.0001) > PTRACERS_Iter0= 0,
(PID.TID 0000.0001) ># tracer 1 - phosphate
(PID.TID 0000.0001) > PTRACERS_names(1)='PO4',
(PID.TID 0000.0001) > PTRACERS_units(1)='mmol P/m^3',
(PID.TID 0000.0001) > PTRACERS_advScheme(1)=33,
(PID.TID 0000.0001) > PTRACERS_diffKh(1)=0.E3,
(PID.TID 0000.0001) > PTRACERS_diffKr(1)=1.E-5,
(PID.TID 0000.0001) > PTRACERS_useGMRedi(1)=.FALSE. ,
(PID.TID 0000.0001) > PTRACERS_useKPP(1)=.TRUE.,
(PID.TID 0000.0001) > PTRACERS_initialFile(1)='input/loc1_phos_janprof.bin',
(PID.TID 0000.0001) ># tracer 2 - nitrate
(PID.TID 0000.0001) > PTRACERS_names(2)='NO3',
(PID.TID 0000.0001) > PTRACERS_units(2)='mmol N/m^3',
(PID.TID 0000.0001) > PTRACERS_advScheme(2)=33,
(PID.TID 0000.0001) > PTRACERS_diffKh(2)=0.E3,
(PID.TID 0000.0001) > PTRACERS_diffKr(2)=1.E-5,
(PID.TID 0000.0001) > PTRACERS_useGMRedi(2)=.FALSE. ,
(PID.TID 0000.0001) > PTRACERS_useKPP(2)=.TRUE.,
(PID.TID 0000.0001) > PTRACERS_initialFile(2)='input/loc1_nitr_janprof.bin',
(PID.TID 0000.0001) ># tracer 3 - dissolved iron
(PID.TID 0000.0001) > PTRACERS_names(3)='FeT',
(PID.TID 0000.0001) > PTRACERS_units(3)='mmol Fe/m^3',
(PID.TID 0000.0001) > PTRACERS_advScheme(3)=33,
(PID.TID 0000.0001) > PTRACERS_diffKh(3)=0.E3,
(PID.TID 0000.0001) > PTRACERS_diffKr(3)=1.E-5,
(PID.TID 0000.0001) > PTRACERS_useGMRedi(3)=.FALSE. ,
(PID.TID 0000.0001) > PTRACERS_useKPP(3)=.TRUE.,
(PID.TID 0000.0001) > PTRACERS_initialFile(3)='input/fet_uniform.bin',
(PID.TID 0000.0001) ># tracer 4 - silicic acid
(PID.TID 0000.0001) > PTRACERS_names(4)='SiO2',
(PID.TID 0000.0001) > PTRACERS_units(4)='mmol Si/m^3',
(PID.TID 0000.0001) > PTRACERS_advScheme(4)=33,
(PID.TID 0000.0001) > PTRACERS_diffKh(4)=0.E3,
(PID.TID 0000.0001) > PTRACERS_diffKr(4)=1.E-5,
(PID.TID 0000.0001) > PTRACERS_useGMRedi(4)=.FALSE. ,
(PID.TID 0000.0001) > PTRACERS_useKPP(4)=.TRUE.,
(PID.TID 0000.0001) > PTRACERS_initialFile(4)='input/loc1_sil_janprof.bin',
(PID.TID 0000.0001) ># tracer 5 - DOP
(PID.TID 0000.0001) > PTRACERS_names(5)='DOP',
(PID.TID 0000.0001) > PTRACERS_units(5)='mmol P/m^3',
(PID.TID 0000.0001) > PTRACERS_advScheme(5)=33,
(PID.TID 0000.0001) > PTRACERS_diffKh(5)=0.E3,
(PID.TID 0000.0001) > PTRACERS_diffKr(5)=1.E-5,
(PID.TID 0000.0001) > PTRACERS_useGMRedi(5)=.FALSE. ,
(PID.TID 0000.0001) > PTRACERS_useKPP(5)=.TRUE.,  ,
(PID.TID 0000.0001) > PTRACERS_initialFile(5)='input/loc1_DOP_run83_janprof.bin',
(PID.TID 0000.0001) ># tracer 6 - DON
(PID.TID 0000.0001) > PTRACERS_names(6)='DON',
(PID.TID 0000.0001) > PTRACERS_units(6)='mmol N/m^3',
(PID.TID 0000.0001) > PTRACERS_advScheme(6)=33,
(PID.TID 0000.0001) > PTRACERS_diffKh(6)=0.E3,
(PID.TID 0000.0001) > PTRACERS_diffKr(6)=1.E-5,
(PID.TID 0000.0001) > PTRACERS_useGMRedi(6)=.FALSE. ,
(PID.TID 0000.0001) > PTRACERS_useKPP(6)=.TRUE.,
(PID.TID 0000.0001) > PTRACERS_initialFile(6)='input/loc1_DON_run83_janprof.bin',
(PID.TID 0000.0001) ># tracer 7 - DOFe
(PID.TID 0000.0001) > PTRACERS_names(7)='DOFe',
(PID.TID 0000.0001) > PTRACERS_units(7)='mmol Fe/m^3',
(PID.TID 0000.0001) > PTRACERS_advScheme(7)=33,
(PID.TID 0000.0001) > PTRACERS_diffKh(7)=0.E3,
(PID.TID 0000.0001) > PTRACERS_diffKr(7)=1.E-5,
(PID.TID 0000.0001) > PTRACERS_useGMRedi(7)=.FALSE. ,
(PID.TID 0000.0001) > PTRACERS_useKPP(7)=.TRUE.,
(PID.TID 0000.0001) > PTRACERS_initialFile(7)='input/loc1_DOFe_run83_janprof.bin',
(PID.TID 0000.0001) ># tracer 8 - ZOO1P
(PID.TID 0000.0001) > PTRACERS_names(8)='ZOO1P',
(PID.TID 0000.0001) > PTRACERS_units(8)='mmol P/m^3',
(PID.TID 0000.0001) > PTRACERS_advScheme(8)=33,
(PID.TID 0000.0001) > PTRACERS_diffKh(8)=0.E3,
(PID.TID 0000.0001) > PTRACERS_diffKr(8)=1.E-5,
(PID.TID 0000.0001) > PTRACERS_useGMRedi(8)=.FALSE. ,
(PID.TID 0000.0001) > PTRACERS_useKPP(8)=.TRUE.,
(PID.TID 0000.0001) > PTRACERS_initialFile(8)='input/loc1_ZOOP_run83_janprof.bin',
(PID.TID 0000.0001) ># tracer 9 - ZOO1N
(PID.TID 0000.0001) > PTRACERS_names(9)='ZOO1N',
(PID.TID 0000.0001) > PTRACERS_units(9)='mmol N/m^3'
(PID.TID 0000.0001) > PTRACERS_advScheme(9)=33,
(PID.TID 0000.0001) > PTRACERS_diffKh(9)=0.E3,
(PID.TID 0000.0001) > PTRACERS_diffKr(9)=1.E-5,
(PID.TID 0000.0001) > PTRACERS_useGMRedi(9)=.FALSE. ,
(PID.TID 0000.0001) > PTRACERS_useKPP(9)=.TRUE.,
(PID.TID 0000.0001) > PTRACERS_initialFile(9)='input/loc1_ZOON_run83_janprof.bin',
(PID.TID 0000.0001) ># tracer 10 - ZOO1Fe
(PID.TID 0000.0001) > PTRACERS_names(10)='ZOO1Fe',
(PID.TID 0000.0001) > PTRACERS_units(10)='mmol Fe/m^3'
(PID.TID 0000.0001) > PTRACERS_advScheme(10)=33,
(PID.TID 0000.0001) > PTRACERS_diffKh(10)=0.E3,
(PID.TID 0000.0001) > PTRACERS_diffKr(10)=1.E-5,
(PID.TID 0000.0001) > PTRACERS_useGMRedi(10)=.FALSE. ,
(PID.TID 0000.0001) > PTRACERS_useKPP(10)=.TRUE.,
(PID.TID 0000.0001) > PTRACERS_initialFile(10)='input/loc1_ZOOFe_run83_janprof.bin',
(PID.TID 0000.0001) ># tracer 11 - ZOO1Si
(PID.TID 0000.0001) > PTRACERS_names(11)='ZOO1Si',
(PID.TID 0000.0001) > PTRACERS_units(11)='mmol Si/m^3'
(PID.TID 0000.0001) > PTRACERS_advScheme(11)=33,
(PID.TID 0000.0001) > PTRACERS_diffKh(11)=0.E3,
(PID.TID 0000.0001) > PTRACERS_diffKr(11)=1.E-5,
(PID.TID 0000.0001) > PTRACERS_useGMRedi(11)=.FALSE. ,
(PID.TID 0000.0001) > PTRACERS_useKPP(11)=.TRUE.,
(PID.TID 0000.0001) > PTRACERS_initialFile(11)='input/loc1_ZOOSi_run83_janprof.bin',
(PID.TID 0000.0001) ># tracer 12 - ZOO2P
(PID.TID 0000.0001) > PTRACERS_names(12)='ZOO2P',
(PID.TID 0000.0001) > PTRACERS_units(12)='mmol P/m^3',
(PID.TID 0000.0001) > PTRACERS_advScheme(12)=33,
(PID.TID 0000.0001) > PTRACERS_diffKh(12)=0.E3,
(PID.TID 0000.0001) > PTRACERS_diffKr(12)=1.E-5,
(PID.TID 0000.0001) > PTRACERS_useGMRedi(12)=.FALSE. ,
(PID.TID 0000.0001) > PTRACERS_useKPP(12)=.TRUE.,
(PID.TID 0000.0001) > PTRACERS_initialFile(12)='input/loc1_ZOOP_run83_janprof.bin',
(PID.TID 0000.0001) ># tracer 13 - ZOO2N
(PID.TID 0000.0001) > PTRACERS_names(13)='ZOO2N',
(PID.TID 0000.0001) > PTRACERS_units(13)='mmol N/m^3'
(PID.TID 0000.0001) > PTRACERS_advScheme(13)=33,
(PID.TID 0000.0001) > PTRACERS_diffKh(13)=0.E3,
(PID.TID 0000.0001) > PTRACERS_diffKr(13)=1.E-5,
(PID.TID 0000.0001) > PTRACERS_useGMRedi(13)=.FALSE. ,
(PID.TID 0000.0001) > PTRACERS_useKPP(13)=.TRUE.,
(PID.TID 0000.0001) > PTRACERS_initialFile(13)='input/loc1_ZOON_run83_janprof.bin',
(PID.TID 0000.0001) ># tracer 14 - ZOO2Fe
(PID.TID 0000.0001) > PTRACERS_names(14)='ZOO2Fe',
(PID.TID 0000.0001) > PTRACERS_units(14)='mmol Fe/m^3'
(PID.TID 0000.0001) > PTRACERS_advScheme(14)=33,
(PID.TID 0000.0001) > PTRACERS_diffKh(14)=0.E3,
(PID.TID 0000.0001) > PTRACERS_diffKr(14)=1.E-5,
(PID.TID 0000.0001) > PTRACERS_useGMRedi(14)=.FALSE. ,
(PID.TID 0000.0001) > PTRACERS_useKPP(14)=.TRUE.,
(PID.TID 0000.0001) > PTRACERS_initialFile(14)='input/loc1_ZOOFe_run83_janprof.bin',
(PID.TID 0000.0001) ># tracer 15 - ZOO2Si
(PID.TID 0000.0001) > PTRACERS_names(15)='ZOO2Si',
(PID.TID 0000.0001) > PTRACERS_units(15)='mmol Si/m^3'
(PID.TID 0000.0001) > PTRACERS_advScheme(15)=33,
(PID.TID 0000.0001) > PTRACERS_diffKh(15)=0.E3,
(PID.TID 0000.0001) > PTRACERS_diffKr(15)=1.E-5,
(PID.TID 0000.0001) > PTRACERS_useGMRedi(15)=.FALSE. ,
(PID.TID 0000.0001) > PTRACERS_useKPP(15)=.TRUE.,
(PID.TID 0000.0001) > PTRACERS_initialFile(15)='input/loc1_ZOOSi_run83_janprof.bin',
(PID.TID 0000.0001) ># tracer 16 - POP
(PID.TID 0000.0001) > PTRACERS_names(16)='POP',
(PID.TID 0000.0001) > PTRACERS_units(16)='mmol P/m^3',
(PID.TID 0000.0001) > PTRACERS_advScheme(16)=33,
(PID.TID 0000.0001) > PTRACERS_diffKh(16)=0.E3,
(PID.TID 0000.0001) > PTRACERS_diffKr(16)=1.E-5,
(PID.TID 0000.0001) > PTRACERS_useGMRedi(16)=.FALSE. ,
(PID.TID 0000.0001) > PTRACERS_useKPP(16)=.TRUE.,
(PID.TID 0000.0001) > PTRACERS_initialFile(16)='input/loc1_POP_run83_janprof.bin',
(PID.TID 0000.0001) ># tracer 17 - PON
(PID.TID 0000.0001) > PTRACERS_names(17)='PON',
(PID.TID 0000.0001) > PTRACERS_units(17)='mmol N/m^3',
(PID.TID 0000.0001) > PTRACERS_advScheme(17)=33,
(PID.TID 0000.0001) > PTRACERS_diffKh(17)=0.E3,
(PID.TID 0000.0001) > PTRACERS_diffKr(17)=1.E-5,
(PID.TID 0000.0001) > PTRACERS_useGMRedi(17)=.FALSE. ,
(PID.TID 0000.0001) > PTRACERS_useKPP(17)=.TRUE.,
(PID.TID 0000.0001) > PTRACERS_initialFile(17)='input/loc1_PON_run83_janprof.bin',
(PID.TID 0000.0001) ># tracer 18 - POFe
(PID.TID 0000.0001) > PTRACERS_names(18)='POFe',
(PID.TID 0000.0001) > PTRACERS_units(18)='mmol Fe/m^3'
(PID.TID 0000.0001) > PTRACERS_advScheme(18)=33,
(PID.TID 0000.0001) > PTRACERS_diffKh(18)=0.E3,
(PID.TID 0000.0001) > PTRACERS_diffKr(18)=1.E-5,
(PID.TID 0000.0001) > PTRACERS_useGMRedi(18)=.FALSE. ,
(PID.TID 0000.0001) > PTRACERS_useKPP(18)=.TRUE.,
(PID.TID 0000.0001) > PTRACERS_initialFile(18)='input/loc1_POFe_run83_janprof.bin',
(PID.TID 0000.0001) ># tracer 19 - POSi
(PID.TID 0000.0001) > PTRACERS_names(19)='POSi',
(PID.TID 0000.0001) > PTRACERS_units(19)='mmol Si/m^3'
(PID.TID 0000.0001) > PTRACERS_advScheme(19)=33,
(PID.TID 0000.0001) > PTRACERS_diffKh(19)=0.E3,
(PID.TID 0000.0001) > PTRACERS_diffKr(19)=1.E-5,
(PID.TID 0000.0001) > PTRACERS_useGMRedi(19)=.FALSE. ,
(PID.TID 0000.0001) > PTRACERS_useKPP(19)=.TRUE.,
(PID.TID 0000.0001) > PTRACERS_initialFile(19)='input/loc1_POSi_run83_janprof.bin',
(PID.TID 0000.0001) ># tracer 20 - NH4
(PID.TID 0000.0001) > PTRACERS_names(20)='NH4',
(PID.TID 0000.0001) > PTRACERS_units(20)='mmol N/m^3'
(PID.TID 0000.0001) > PTRACERS_advScheme(20)=33,
(PID.TID 0000.0001) > PTRACERS_diffKh(20)=0.E3,
(PID.TID 0000.0001) > PTRACERS_diffKr(20)=1.E-5,
(PID.TID 0000.0001) > PTRACERS_useGMRedi(20)=.FALSE. ,
(PID.TID 0000.0001) > PTRACERS_useKPP(20)=.TRUE.,
(PID.TID 0000.0001) > PTRACERS_initialFile(20)='input/loc1_NH4_run83_janprof.bin',
(PID.TID 0000.0001) ># tracer 21 - NO2
(PID.TID 0000.0001) > PTRACERS_names(21)='NO2',
(PID.TID 0000.0001) > PTRACERS_units(21)='mmol N/m^3'
(PID.TID 0000.0001) > PTRACERS_advScheme(21)=33,
(PID.TID 0000.0001) > PTRACERS_diffKh(21)=0.E3,
(PID.TID 0000.0001) > PTRACERS_diffKr(21)=1.E-5,
(PID.TID 0000.0001) > PTRACERS_useGMRedi(21)=.FALSE. ,
(PID.TID 0000.0001) > PTRACERS_useKPP(21)=.TRUE.,
(PID.TID 0000.0001) > PTRACERS_initialFile(21)='input/loc1_NO2_run83_janprof.bin',
(PID.TID 0000.0001) ># tracer 22 - PHYT01
(PID.TID 0000.0001) > PTRACERS_names(22)='Phy1',
(PID.TID 0000.0001) > PTRACERS_units(22)='mmol P/m^3'
(PID.TID 0000.0001) > PTRACERS_advScheme(22)=33,
(PID.TID 0000.0001) > PTRACERS_diffKh(22)=0.E3,
(PID.TID 0000.0001) > PTRACERS_diffKr(22)=1.E-5,
(PID.TID 0000.0001) > PTRACERS_useGMRedi(22)=.FALSE. ,
(PID.TID 0000.0001) > PTRACERS_useKPP(22)=.TRUE.,
(PID.TID 0000.0001) > PTRACERS_initialFile(22)='input/loc1_biomass_run83_janprof.bin',
(PID.TID 0000.0001) ># tracer 23 - PHYT02
(PID.TID 0000.0001) > PTRACERS_names(23)='Phy2',
(PID.TID 0000.0001) > PTRACERS_units(23)='mmol P/m^3'
(PID.TID 0000.0001) > PTRACERS_advScheme(23)=33,
(PID.TID 0000.0001) > PTRACERS_diffKh(23)=0.E3,
(PID.TID 0000.0001) > PTRACERS_diffKr(23)=1.E-5,
(PID.TID 0000.0001) > PTRACERS_useGMRedi(23)=.FALSE. ,
(PID.TID 0000.0001) > PTRACERS_useKPP(23)=.TRUE.,
(PID.TID 0000.0001) > PTRACERS_initialFile(23)='input/loc1_biomass_run83_janprof.bin',
(PID.TID 0000.0001) > &
(PID.TID 0000.0001) 
(PID.TID 0000.0001)  PTRACERS_READPARMS: finished reading data.ptracers
(PID.TID 0000.0001) // ===================================
(PID.TID 0000.0001) // PTRACERS parameters
(PID.TID 0000.0001) // ===================================
(PID.TID 0000.0001) PTRACERS_numInUse = /* number of tracers */
(PID.TID 0000.0001)                      23
(PID.TID 0000.0001)     ;
(PID.TID 0000.0001) PTRACERS_Iter0 = /* timestep number when tracers are initialized */
(PID.TID 0000.0001)                       0
(PID.TID 0000.0001)     ;
(PID.TID 0000.0001) PTRACERS_dumpFreq = /* Frequency^-1 for snapshot output (s) */
(PID.TID 0000.0001)                 3.110400000000000E+07
(PID.TID 0000.0001)     ;
(PID.TID 0000.0001) PTRACERS_taveFreq = /* Frequency^-1 for time-Aver. output (s) */
(PID.TID 0000.0001)                 2.592000000000000E+06
(PID.TID 0000.0001)     ;
(PID.TID 0000.0001) PTRACERS_useRecords = /* all tracers in 1 file */
(PID.TID 0000.0001)                   F
(PID.TID 0000.0001)     ;
(PID.TID 0000.0001) PTRACERS_timeave_mnc = /* use MNC for Tave output */
(PID.TID 0000.0001)                   T
(PID.TID 0000.0001)     ;
(PID.TID 0000.0001) PTRACERS_snapshot_mnc = /* use MNC for snapshot output */
(PID.TID 0000.0001)                   T
(PID.TID 0000.0001)     ;
(PID.TID 0000.0001) PTRACERS_pickup_write_mnc = /* use MNC for writing pickups */
(PID.TID 0000.0001)                   F
(PID.TID 0000.0001)     ;
(PID.TID 0000.0001) PTRACERS_pickup_read_mnc = /* use MNC for reading pickups */
(PID.TID 0000.0001)                   F
(PID.TID 0000.0001)     ;
(PID.TID 0000.0001)  -----------------------------------
(PID.TID 0000.0001)  tracer number :    1
(PID.TID 0000.0001) PTRACERS_ioLabel = /* tracer IO Label */
(PID.TID 0000.0001)               '01'
(PID.TID 0000.0001)     ;
(PID.TID 0000.0001) PTRACERS_advScheme = /* Advection Scheme */
(PID.TID 0000.0001)                      33
(PID.TID 0000.0001)     ;
(PID.TID 0000.0001) PTRACERS_ImplVertAdv = /* implicit vert. advection flag */
(PID.TID 0000.0001)                   F
(PID.TID 0000.0001)     ;
(PID.TID 0000.0001) PTRACERS_diffKh = /* Laplacian Diffusivity */
(PID.TID 0000.0001)                 0.000000000000000E+00
(PID.TID 0000.0001)     ;
(PID.TID 0000.0001) PTRACERS_diffK4 = /* Biharmonic Diffusivity */
(PID.TID 0000.0001)                 0.000000000000000E+00
(PID.TID 0000.0001)     ;
(PID.TID 0000.0001) PTRACERS_diffKrNr = /* Vertical Diffusivity */
(PID.TID 0000.0001)    35 @  1.000000000000000E-05              /* K =  1: 35 */
(PID.TID 0000.0001)     ;
(PID.TID 0000.0001) PTRACERS_useGMRedi = /* apply GM-Redi */
(PID.TID 0000.0001)                   F
(PID.TID 0000.0001)     ;
(PID.TID 0000.0001) PTRACERS_useDWNSLP = /* apply DOWN-SLOPE Flow */
(PID.TID 0000.0001)                   F
(PID.TID 0000.0001)     ;
(PID.TID 0000.0001) PTRACERS_useKPP = /* apply KPP scheme */
(PID.TID 0000.0001)                   T
(PID.TID 0000.0001)     ;
(PID.TID 0000.0001) PTRACERS_ref = /* Reference vertical profile */
(PID.TID 0000.0001)    35 @  0.000000000000000E+00              /* K =  1: 35 */
(PID.TID 0000.0001)     ;
(PID.TID 0000.0001) PTRACERS_EvPrRn =/* tracer conc. in Evap. & Rain */
(PID.TID 0000.0001)                 1.234567000000000E+05
(PID.TID 0000.0001)     ;
(PID.TID 0000.0001)  -----------------------------------
(PID.TID 0000.0001)  tracer number :    2
(PID.TID 0000.0001) PTRACERS_ioLabel = /* tracer IO Label */
(PID.TID 0000.0001)               '02'
(PID.TID 0000.0001)     ;
(PID.TID 0000.0001) PTRACERS_advScheme = /* Advection Scheme */
(PID.TID 0000.0001)                      33
(PID.TID 0000.0001)     ;
(PID.TID 0000.0001) PTRACERS_ImplVertAdv = /* implicit vert. advection flag */
(PID.TID 0000.0001)                   F
(PID.TID 0000.0001)     ;
(PID.TID 0000.0001) PTRACERS_diffKh = /* Laplacian Diffusivity */
(PID.TID 0000.0001)                 0.000000000000000E+00
(PID.TID 0000.0001)     ;
(PID.TID 0000.0001) PTRACERS_diffK4 = /* Biharmonic Diffusivity */
(PID.TID 0000.0001)                 0.000000000000000E+00
(PID.TID 0000.0001)     ;
(PID.TID 0000.0001) PTRACERS_diffKrNr = /* Vertical Diffusivity */
(PID.TID 0000.0001)    35 @  1.000000000000000E-05              /* K =  1: 35 */
(PID.TID 0000.0001)     ;
(PID.TID 0000.0001) PTRACERS_useGMRedi = /* apply GM-Redi */
(PID.TID 0000.0001)                   F
(PID.TID 0000.0001)     ;
(PID.TID 0000.0001) PTRACERS_useDWNSLP = /* apply DOWN-SLOPE Flow */
(PID.TID 0000.0001)                   F
(PID.TID 0000.0001)     ;
(PID.TID 0000.0001) PTRACERS_useKPP = /* apply KPP scheme */
(PID.TID 0000.0001)                   T
(PID.TID 0000.0001)     ;
(PID.TID 0000.0001) PTRACERS_ref = /* Reference vertical profile */
(PID.TID 0000.0001)    35 @  0.000000000000000E+00              /* K =  1: 35 */
(PID.TID 0000.0001)     ;
(PID.TID 0000.0001) PTRACERS_EvPrRn =/* tracer conc. in Evap. & Rain */
(PID.TID 0000.0001)                 1.234567000000000E+05
(PID.TID 0000.0001)     ;
(PID.TID 0000.0001)  -----------------------------------
(PID.TID 0000.0001)  tracer number :    3
(PID.TID 0000.0001) PTRACERS_ioLabel = /* tracer IO Label */
(PID.TID 0000.0001)               '03'
(PID.TID 0000.0001)     ;
(PID.TID 0000.0001) PTRACERS_advScheme = /* Advection Scheme */
(PID.TID 0000.0001)                      33
(PID.TID 0000.0001)     ;
(PID.TID 0000.0001) PTRACERS_ImplVertAdv = /* implicit vert. advection flag */
(PID.TID 0000.0001)                   F
(PID.TID 0000.0001)     ;
(PID.TID 0000.0001) PTRACERS_diffKh = /* Laplacian Diffusivity */
(PID.TID 0000.0001)                 0.000000000000000E+00
(PID.TID 0000.0001)     ;
(PID.TID 0000.0001) PTRACERS_diffK4 = /* Biharmonic Diffusivity */
(PID.TID 0000.0001)                 0.000000000000000E+00
(PID.TID 0000.0001)     ;
(PID.TID 0000.0001) PTRACERS_diffKrNr = /* Vertical Diffusivity */
(PID.TID 0000.0001)    35 @  1.000000000000000E-05              /* K =  1: 35 */
(PID.TID 0000.0001)     ;
(PID.TID 0000.0001) PTRACERS_useGMRedi = /* apply GM-Redi */
(PID.TID 0000.0001)                   F
(PID.TID 0000.0001)     ;
(PID.TID 0000.0001) PTRACERS_useDWNSLP = /* apply DOWN-SLOPE Flow */
(PID.TID 0000.0001)                   F
(PID.TID 0000.0001)     ;
(PID.TID 0000.0001) PTRACERS_useKPP = /* apply KPP scheme */
(PID.TID 0000.0001)                   T
(PID.TID 0000.0001)     ;
(PID.TID 0000.0001) PTRACERS_ref = /* Reference vertical profile */
(PID.TID 0000.0001)    35 @  0.000000000000000E+00              /* K =  1: 35 */
(PID.TID 0000.0001)     ;
(PID.TID 0000.0001) PTRACERS_EvPrRn =/* tracer conc. in Evap. & Rain */
(PID.TID 0000.0001)                 1.234567000000000E+05
(PID.TID 0000.0001)     ;
(PID.TID 0000.0001)  -----------------------------------
(PID.TID 0000.0001)  tracer number :    4
(PID.TID 0000.0001) PTRACERS_ioLabel = /* tracer IO Label */
(PID.TID 0000.0001)               '04'
(PID.TID 0000.0001)     ;
(PID.TID 0000.0001) PTRACERS_advScheme = /* Advection Scheme */
(PID.TID 0000.0001)                      33
(PID.TID 0000.0001)     ;
(PID.TID 0000.0001) PTRACERS_ImplVertAdv = /* implicit vert. advection flag */
(PID.TID 0000.0001)                   F
(PID.TID 0000.0001)     ;
(PID.TID 0000.0001) PTRACERS_diffKh = /* Laplacian Diffusivity */
(PID.TID 0000.0001)                 0.000000000000000E+00
(PID.TID 0000.0001)     ;
(PID.TID 0000.0001) PTRACERS_diffK4 = /* Biharmonic Diffusivity */
(PID.TID 0000.0001)                 0.000000000000000E+00
(PID.TID 0000.0001)     ;
(PID.TID 0000.0001) PTRACERS_diffKrNr = /* Vertical Diffusivity */
(PID.TID 0000.0001)    35 @  1.000000000000000E-05              /* K =  1: 35 */
(PID.TID 0000.0001)     ;
(PID.TID 0000.0001) PTRACERS_useGMRedi = /* apply GM-Redi */
(PID.TID 0000.0001)                   F
(PID.TID 0000.0001)     ;
(PID.TID 0000.0001) PTRACERS_useDWNSLP = /* apply DOWN-SLOPE Flow */
(PID.TID 0000.0001)                   F
(PID.TID 0000.0001)     ;
(PID.TID 0000.0001) PTRACERS_useKPP = /* apply KPP scheme */
(PID.TID 0000.0001)                   T
(PID.TID 0000.0001)     ;
(PID.TID 0000.0001) PTRACERS_ref = /* Reference vertical profile */
(PID.TID 0000.0001)    35 @  0.000000000000000E+00              /* K =  1: 35 */
(PID.TID 0000.0001)     ;
(PID.TID 0000.0001) PTRACERS_EvPrRn =/* tracer conc. in Evap. & Rain */
(PID.TID 0000.0001)                 1.234567000000000E+05
(PID.TID 0000.0001)     ;
(PID.TID 0000.0001)  -----------------------------------
(PID.TID 0000.0001)  tracer number :    5
(PID.TID 0000.0001) PTRACERS_ioLabel = /* tracer IO Label */
(PID.TID 0000.0001)               '05'
(PID.TID 0000.0001)     ;
(PID.TID 0000.0001) PTRACERS_advScheme = /* Advection Scheme */
(PID.TID 0000.0001)                      33
(PID.TID 0000.0001)     ;
(PID.TID 0000.0001) PTRACERS_ImplVertAdv = /* implicit vert. advection flag */
(PID.TID 0000.0001)                   F
(PID.TID 0000.0001)     ;
(PID.TID 0000.0001) PTRACERS_diffKh = /* Laplacian Diffusivity */
(PID.TID 0000.0001)                 0.000000000000000E+00
(PID.TID 0000.0001)     ;
(PID.TID 0000.0001) PTRACERS_diffK4 = /* Biharmonic Diffusivity */
(PID.TID 0000.0001)                 0.000000000000000E+00
(PID.TID 0000.0001)     ;
(PID.TID 0000.0001) PTRACERS_diffKrNr = /* Vertical Diffusivity */
(PID.TID 0000.0001)    35 @  1.000000000000000E-05              /* K =  1: 35 */
(PID.TID 0000.0001)     ;
(PID.TID 0000.0001) PTRACERS_useGMRedi = /* apply GM-Redi */
(PID.TID 0000.0001)                   F
(PID.TID 0000.0001)     ;
(PID.TID 0000.0001) PTRACERS_useDWNSLP = /* apply DOWN-SLOPE Flow */
(PID.TID 0000.0001)                   F
(PID.TID 0000.0001)     ;
(PID.TID 0000.0001) PTRACERS_useKPP = /* apply KPP scheme */
(PID.TID 0000.0001)                   T
(PID.TID 0000.0001)     ;
(PID.TID 0000.0001) PTRACERS_ref = /* Reference vertical profile */
(PID.TID 0000.0001)    35 @  0.000000000000000E+00              /* K =  1: 35 */
(PID.TID 0000.0001)     ;
(PID.TID 0000.0001) PTRACERS_EvPrRn =/* tracer conc. in Evap. & Rain */
(PID.TID 0000.0001)                 1.234567000000000E+05
(PID.TID 0000.0001)     ;
(PID.TID 0000.0001)  -----------------------------------
(PID.TID 0000.0001)  tracer number :    6
(PID.TID 0000.0001) PTRACERS_ioLabel = /* tracer IO Label */
(PID.TID 0000.0001)               '06'
(PID.TID 0000.0001)     ;
(PID.TID 0000.0001) PTRACERS_advScheme = /* Advection Scheme */
(PID.TID 0000.0001)                      33
(PID.TID 0000.0001)     ;
(PID.TID 0000.0001) PTRACERS_ImplVertAdv = /* implicit vert. advection flag */
(PID.TID 0000.0001)                   F
(PID.TID 0000.0001)     ;
(PID.TID 0000.0001) PTRACERS_diffKh = /* Laplacian Diffusivity */
(PID.TID 0000.0001)                 0.000000000000000E+00
(PID.TID 0000.0001)     ;
(PID.TID 0000.0001) PTRACERS_diffK4 = /* Biharmonic Diffusivity */
(PID.TID 0000.0001)                 0.000000000000000E+00
(PID.TID 0000.0001)     ;
(PID.TID 0000.0001) PTRACERS_diffKrNr = /* Vertical Diffusivity */
(PID.TID 0000.0001)    35 @  1.000000000000000E-05              /* K =  1: 35 */
(PID.TID 0000.0001)     ;
(PID.TID 0000.0001) PTRACERS_useGMRedi = /* apply GM-Redi */
(PID.TID 0000.0001)                   F
(PID.TID 0000.0001)     ;
(PID.TID 0000.0001) PTRACERS_useDWNSLP = /* apply DOWN-SLOPE Flow */
(PID.TID 0000.0001)                   F
(PID.TID 0000.0001)     ;
(PID.TID 0000.0001) PTRACERS_useKPP = /* apply KPP scheme */
(PID.TID 0000.0001)                   T
(PID.TID 0000.0001)     ;
(PID.TID 0000.0001) PTRACERS_ref = /* Reference vertical profile */
(PID.TID 0000.0001)    35 @  0.000000000000000E+00              /* K =  1: 35 */
(PID.TID 0000.0001)     ;
(PID.TID 0000.0001) PTRACERS_EvPrRn =/* tracer conc. in Evap. & Rain */
(PID.TID 0000.0001)                 1.234567000000000E+05
(PID.TID 0000.0001)     ;
(PID.TID 0000.0001)  -----------------------------------
(PID.TID 0000.0001)  tracer number :    7
(PID.TID 0000.0001) PTRACERS_ioLabel = /* tracer IO Label */
(PID.TID 0000.0001)               '07'
(PID.TID 0000.0001)     ;
(PID.TID 0000.0001) PTRACERS_advScheme = /* Advection Scheme */
(PID.TID 0000.0001)                      33
(PID.TID 0000.0001)     ;
(PID.TID 0000.0001) PTRACERS_ImplVertAdv = /* implicit vert. advection flag */
(PID.TID 0000.0001)                   F
(PID.TID 0000.0001)     ;
(PID.TID 0000.0001) PTRACERS_diffKh = /* Laplacian Diffusivity */
(PID.TID 0000.0001)                 0.000000000000000E+00
(PID.TID 0000.0001)     ;
(PID.TID 0000.0001) PTRACERS_diffK4 = /* Biharmonic Diffusivity */
(PID.TID 0000.0001)                 0.000000000000000E+00
(PID.TID 0000.0001)     ;
(PID.TID 0000.0001) PTRACERS_diffKrNr = /* Vertical Diffusivity */
(PID.TID 0000.0001)    35 @  1.000000000000000E-05              /* K =  1: 35 */
(PID.TID 0000.0001)     ;
(PID.TID 0000.0001) PTRACERS_useGMRedi = /* apply GM-Redi */
(PID.TID 0000.0001)                   F
(PID.TID 0000.0001)     ;
(PID.TID 0000.0001) PTRACERS_useDWNSLP = /* apply DOWN-SLOPE Flow */
(PID.TID 0000.0001)                   F
(PID.TID 0000.0001)     ;
(PID.TID 0000.0001) PTRACERS_useKPP = /* apply KPP scheme */
(PID.TID 0000.0001)                   T
(PID.TID 0000.0001)     ;
(PID.TID 0000.0001) PTRACERS_ref = /* Reference vertical profile */
(PID.TID 0000.0001)    35 @  0.000000000000000E+00              /* K =  1: 35 */
(PID.TID 0000.0001)     ;
(PID.TID 0000.0001) PTRACERS_EvPrRn =/* tracer conc. in Evap. & Rain */
(PID.TID 0000.0001)                 1.234567000000000E+05
(PID.TID 0000.0001)     ;
(PID.TID 0000.0001)  -----------------------------------
(PID.TID 0000.0001)  tracer number :    8
(PID.TID 0000.0001) PTRACERS_ioLabel = /* tracer IO Label */
(PID.TID 0000.0001)               '08'
(PID.TID 0000.0001)     ;
(PID.TID 0000.0001) PTRACERS_advScheme = /* Advection Scheme */
(PID.TID 0000.0001)                      33
(PID.TID 0000.0001)     ;
(PID.TID 0000.0001) PTRACERS_ImplVertAdv = /* implicit vert. advection flag */
(PID.TID 0000.0001)                   F
(PID.TID 0000.0001)     ;
(PID.TID 0000.0001) PTRACERS_diffKh = /* Laplacian Diffusivity */
(PID.TID 0000.0001)                 0.000000000000000E+00
(PID.TID 0000.0001)     ;
(PID.TID 0000.0001) PTRACERS_diffK4 = /* Biharmonic Diffusivity */
(PID.TID 0000.0001)                 0.000000000000000E+00
(PID.TID 0000.0001)     ;
(PID.TID 0000.0001) PTRACERS_diffKrNr = /* Vertical Diffusivity */
(PID.TID 0000.0001)    35 @  1.000000000000000E-05              /* K =  1: 35 */
(PID.TID 0000.0001)     ;
(PID.TID 0000.0001) PTRACERS_useGMRedi = /* apply GM-Redi */
(PID.TID 0000.0001)                   F
(PID.TID 0000.0001)     ;
(PID.TID 0000.0001) PTRACERS_useDWNSLP = /* apply DOWN-SLOPE Flow */
(PID.TID 0000.0001)                   F
(PID.TID 0000.0001)     ;
(PID.TID 0000.0001) PTRACERS_useKPP = /* apply KPP scheme */
(PID.TID 0000.0001)                   T
(PID.TID 0000.0001)     ;
(PID.TID 0000.0001) PTRACERS_ref = /* Reference vertical profile */
(PID.TID 0000.0001)    35 @  0.000000000000000E+00              /* K =  1: 35 */
(PID.TID 0000.0001)     ;
(PID.TID 0000.0001) PTRACERS_EvPrRn =/* tracer conc. in Evap. & Rain */
(PID.TID 0000.0001)                 1.234567000000000E+05
(PID.TID 0000.0001)     ;
(PID.TID 0000.0001)  -----------------------------------
(PID.TID 0000.0001)  tracer number :    9
(PID.TID 0000.0001) PTRACERS_ioLabel = /* tracer IO Label */
(PID.TID 0000.0001)               '09'
(PID.TID 0000.0001)     ;
(PID.TID 0000.0001) PTRACERS_advScheme = /* Advection Scheme */
(PID.TID 0000.0001)                      33
(PID.TID 0000.0001)     ;
(PID.TID 0000.0001) PTRACERS_ImplVertAdv = /* implicit vert. advection flag */
(PID.TID 0000.0001)                   F
(PID.TID 0000.0001)     ;
(PID.TID 0000.0001) PTRACERS_diffKh = /* Laplacian Diffusivity */
(PID.TID 0000.0001)                 0.000000000000000E+00
(PID.TID 0000.0001)     ;
(PID.TID 0000.0001) PTRACERS_diffK4 = /* Biharmonic Diffusivity */
(PID.TID 0000.0001)                 0.000000000000000E+00
(PID.TID 0000.0001)     ;
(PID.TID 0000.0001) PTRACERS_diffKrNr = /* Vertical Diffusivity */
(PID.TID 0000.0001)    35 @  1.000000000000000E-05              /* K =  1: 35 */
(PID.TID 0000.0001)     ;
(PID.TID 0000.0001) PTRACERS_useGMRedi = /* apply GM-Redi */
(PID.TID 0000.0001)                   F
(PID.TID 0000.0001)     ;
(PID.TID 0000.0001) PTRACERS_useDWNSLP = /* apply DOWN-SLOPE Flow */
(PID.TID 0000.0001)                   F
(PID.TID 0000.0001)     ;
(PID.TID 0000.0001) PTRACERS_useKPP = /* apply KPP scheme */
(PID.TID 0000.0001)                   T
(PID.TID 0000.0001)     ;
(PID.TID 0000.0001) PTRACERS_ref = /* Reference vertical profile */
(PID.TID 0000.0001)    35 @  0.000000000000000E+00              /* K =  1: 35 */
(PID.TID 0000.0001)     ;
(PID.TID 0000.0001) PTRACERS_EvPrRn =/* tracer conc. in Evap. & Rain */
(PID.TID 0000.0001)                 1.234567000000000E+05
(PID.TID 0000.0001)     ;
(PID.TID 0000.0001)  -----------------------------------
(PID.TID 0000.0001)  tracer number :   10
(PID.TID 0000.0001) PTRACERS_ioLabel = /* tracer IO Label */
(PID.TID 0000.0001)               '10'
(PID.TID 0000.0001)     ;
(PID.TID 0000.0001) PTRACERS_advScheme = /* Advection Scheme */
(PID.TID 0000.0001)                      33
(PID.TID 0000.0001)     ;
(PID.TID 0000.0001) PTRACERS_ImplVertAdv = /* implicit vert. advection flag */
(PID.TID 0000.0001)                   F
(PID.TID 0000.0001)     ;
(PID.TID 0000.0001) PTRACERS_diffKh = /* Laplacian Diffusivity */
(PID.TID 0000.0001)                 0.000000000000000E+00
(PID.TID 0000.0001)     ;
(PID.TID 0000.0001) PTRACERS_diffK4 = /* Biharmonic Diffusivity */
(PID.TID 0000.0001)                 0.000000000000000E+00
(PID.TID 0000.0001)     ;
(PID.TID 0000.0001) PTRACERS_diffKrNr = /* Vertical Diffusivity */
(PID.TID 0000.0001)    35 @  1.000000000000000E-05              /* K =  1: 35 */
(PID.TID 0000.0001)     ;
(PID.TID 0000.0001) PTRACERS_useGMRedi = /* apply GM-Redi */
(PID.TID 0000.0001)                   F
(PID.TID 0000.0001)     ;
(PID.TID 0000.0001) PTRACERS_useDWNSLP = /* apply DOWN-SLOPE Flow */
(PID.TID 0000.0001)                   F
(PID.TID 0000.0001)     ;
(PID.TID 0000.0001) PTRACERS_useKPP = /* apply KPP scheme */
(PID.TID 0000.0001)                   T
(PID.TID 0000.0001)     ;
(PID.TID 0000.0001) PTRACERS_ref = /* Reference vertical profile */
(PID.TID 0000.0001)    35 @  0.000000000000000E+00              /* K =  1: 35 */
(PID.TID 0000.0001)     ;
(PID.TID 0000.0001) PTRACERS_EvPrRn =/* tracer conc. in Evap. & Rain */
(PID.TID 0000.0001)                 1.234567000000000E+05
(PID.TID 0000.0001)     ;
(PID.TID 0000.0001)  -----------------------------------
(PID.TID 0000.0001)  tracer number :   11
(PID.TID 0000.0001) PTRACERS_ioLabel = /* tracer IO Label */
(PID.TID 0000.0001)               '11'
(PID.TID 0000.0001)     ;
(PID.TID 0000.0001) PTRACERS_advScheme = /* Advection Scheme */
(PID.TID 0000.0001)                      33
(PID.TID 0000.0001)     ;
(PID.TID 0000.0001) PTRACERS_ImplVertAdv = /* implicit vert. advection flag */
(PID.TID 0000.0001)                   F
(PID.TID 0000.0001)     ;
(PID.TID 0000.0001) PTRACERS_diffKh = /* Laplacian Diffusivity */
(PID.TID 0000.0001)                 0.000000000000000E+00
(PID.TID 0000.0001)     ;
(PID.TID 0000.0001) PTRACERS_diffK4 = /* Biharmonic Diffusivity */
(PID.TID 0000.0001)                 0.000000000000000E+00
(PID.TID 0000.0001)     ;
(PID.TID 0000.0001) PTRACERS_diffKrNr = /* Vertical Diffusivity */
(PID.TID 0000.0001)    35 @  1.000000000000000E-05              /* K =  1: 35 */
(PID.TID 0000.0001)     ;
(PID.TID 0000.0001) PTRACERS_useGMRedi = /* apply GM-Redi */
(PID.TID 0000.0001)                   F
(PID.TID 0000.0001)     ;
(PID.TID 0000.0001) PTRACERS_useDWNSLP = /* apply DOWN-SLOPE Flow */
(PID.TID 0000.0001)                   F
(PID.TID 0000.0001)     ;
(PID.TID 0000.0001) PTRACERS_useKPP = /* apply KPP scheme */
(PID.TID 0000.0001)                   T
(PID.TID 0000.0001)     ;
(PID.TID 0000.0001) PTRACERS_ref = /* Reference vertical profile */
(PID.TID 0000.0001)    35 @  0.000000000000000E+00              /* K =  1: 35 */
(PID.TID 0000.0001)     ;
(PID.TID 0000.0001) PTRACERS_EvPrRn =/* tracer conc. in Evap. & Rain */
(PID.TID 0000.0001)                 1.234567000000000E+05
(PID.TID 0000.0001)     ;
(PID.TID 0000.0001)  -----------------------------------
(PID.TID 0000.0001)  tracer number :   12
(PID.TID 0000.0001) PTRACERS_ioLabel = /* tracer IO Label */
(PID.TID 0000.0001)               '12'
(PID.TID 0000.0001)     ;
(PID.TID 0000.0001) PTRACERS_advScheme = /* Advection Scheme */
(PID.TID 0000.0001)                      33
(PID.TID 0000.0001)     ;
(PID.TID 0000.0001) PTRACERS_ImplVertAdv = /* implicit vert. advection flag */
(PID.TID 0000.0001)                   F
(PID.TID 0000.0001)     ;
(PID.TID 0000.0001) PTRACERS_diffKh = /* Laplacian Diffusivity */
(PID.TID 0000.0001)                 0.000000000000000E+00
(PID.TID 0000.0001)     ;
(PID.TID 0000.0001) PTRACERS_diffK4 = /* Biharmonic Diffusivity */
(PID.TID 0000.0001)                 0.000000000000000E+00
(PID.TID 0000.0001)     ;
(PID.TID 0000.0001) PTRACERS_diffKrNr = /* Vertical Diffusivity */
(PID.TID 0000.0001)    35 @  1.000000000000000E-05              /* K =  1: 35 */
(PID.TID 0000.0001)     ;
(PID.TID 0000.0001) PTRACERS_useGMRedi = /* apply GM-Redi */
(PID.TID 0000.0001)                   F
(PID.TID 0000.0001)     ;
(PID.TID 0000.0001) PTRACERS_useDWNSLP = /* apply DOWN-SLOPE Flow */
(PID.TID 0000.0001)                   F
(PID.TID 0000.0001)     ;
(PID.TID 0000.0001) PTRACERS_useKPP = /* apply KPP scheme */
(PID.TID 0000.0001)                   T
(PID.TID 0000.0001)     ;
(PID.TID 0000.0001) PTRACERS_ref = /* Reference vertical profile */
(PID.TID 0000.0001)    35 @  0.000000000000000E+00              /* K =  1: 35 */
(PID.TID 0000.0001)     ;
(PID.TID 0000.0001) PTRACERS_EvPrRn =/* tracer conc. in Evap. & Rain */
(PID.TID 0000.0001)                 1.234567000000000E+05
(PID.TID 0000.0001)     ;
(PID.TID 0000.0001)  -----------------------------------
(PID.TID 0000.0001)  tracer number :   13
(PID.TID 0000.0001) PTRACERS_ioLabel = /* tracer IO Label */
(PID.TID 0000.0001)               '13'
(PID.TID 0000.0001)     ;
(PID.TID 0000.0001) PTRACERS_advScheme = /* Advection Scheme */
(PID.TID 0000.0001)                      33
(PID.TID 0000.0001)     ;
(PID.TID 0000.0001) PTRACERS_ImplVertAdv = /* implicit vert. advection flag */
(PID.TID 0000.0001)                   F
(PID.TID 0000.0001)     ;
(PID.TID 0000.0001) PTRACERS_diffKh = /* Laplacian Diffusivity */
(PID.TID 0000.0001)                 0.000000000000000E+00
(PID.TID 0000.0001)     ;
(PID.TID 0000.0001) PTRACERS_diffK4 = /* Biharmonic Diffusivity */
(PID.TID 0000.0001)                 0.000000000000000E+00
(PID.TID 0000.0001)     ;
(PID.TID 0000.0001) PTRACERS_diffKrNr = /* Vertical Diffusivity */
(PID.TID 0000.0001)    35 @  1.000000000000000E-05              /* K =  1: 35 */
(PID.TID 0000.0001)     ;
(PID.TID 0000.0001) PTRACERS_useGMRedi = /* apply GM-Redi */
(PID.TID 0000.0001)                   F
(PID.TID 0000.0001)     ;
(PID.TID 0000.0001) PTRACERS_useDWNSLP = /* apply DOWN-SLOPE Flow */
(PID.TID 0000.0001)                   F
(PID.TID 0000.0001)     ;
(PID.TID 0000.0001) PTRACERS_useKPP = /* apply KPP scheme */
(PID.TID 0000.0001)                   T
(PID.TID 0000.0001)     ;
(PID.TID 0000.0001) PTRACERS_ref = /* Reference vertical profile */
(PID.TID 0000.0001)    35 @  0.000000000000000E+00              /* K =  1: 35 */
(PID.TID 0000.0001)     ;
(PID.TID 0000.0001) PTRACERS_EvPrRn =/* tracer conc. in Evap. & Rain */
(PID.TID 0000.0001)                 1.234567000000000E+05
(PID.TID 0000.0001)     ;
(PID.TID 0000.0001)  -----------------------------------
(PID.TID 0000.0001)  tracer number :   14
(PID.TID 0000.0001) PTRACERS_ioLabel = /* tracer IO Label */
(PID.TID 0000.0001)               '14'
(PID.TID 0000.0001)     ;
(PID.TID 0000.0001) PTRACERS_advScheme = /* Advection Scheme */
(PID.TID 0000.0001)                      33
(PID.TID 0000.0001)     ;
(PID.TID 0000.0001) PTRACERS_ImplVertAdv = /* implicit vert. advection flag */
(PID.TID 0000.0001)                   F
(PID.TID 0000.0001)     ;
(PID.TID 0000.0001) PTRACERS_diffKh = /* Laplacian Diffusivity */
(PID.TID 0000.0001)                 0.000000000000000E+00
(PID.TID 0000.0001)     ;
(PID.TID 0000.0001) PTRACERS_diffK4 = /* Biharmonic Diffusivity */
(PID.TID 0000.0001)                 0.000000000000000E+00
(PID.TID 0000.0001)     ;
(PID.TID 0000.0001) PTRACERS_diffKrNr = /* Vertical Diffusivity */
(PID.TID 0000.0001)    35 @  1.000000000000000E-05              /* K =  1: 35 */
(PID.TID 0000.0001)     ;
(PID.TID 0000.0001) PTRACERS_useGMRedi = /* apply GM-Redi */
(PID.TID 0000.0001)                   F
(PID.TID 0000.0001)     ;
(PID.TID 0000.0001) PTRACERS_useDWNSLP = /* apply DOWN-SLOPE Flow */
(PID.TID 0000.0001)                   F
(PID.TID 0000.0001)     ;
(PID.TID 0000.0001) PTRACERS_useKPP = /* apply KPP scheme */
(PID.TID 0000.0001)                   T
(PID.TID 0000.0001)     ;
(PID.TID 0000.0001) PTRACERS_ref = /* Reference vertical profile */
(PID.TID 0000.0001)    35 @  0.000000000000000E+00              /* K =  1: 35 */
(PID.TID 0000.0001)     ;
(PID.TID 0000.0001) PTRACERS_EvPrRn =/* tracer conc. in Evap. & Rain */
(PID.TID 0000.0001)                 1.234567000000000E+05
(PID.TID 0000.0001)     ;
(PID.TID 0000.0001)  -----------------------------------
(PID.TID 0000.0001)  tracer number :   15
(PID.TID 0000.0001) PTRACERS_ioLabel = /* tracer IO Label */
(PID.TID 0000.0001)               '15'
(PID.TID 0000.0001)     ;
(PID.TID 0000.0001) PTRACERS_advScheme = /* Advection Scheme */
(PID.TID 0000.0001)                      33
(PID.TID 0000.0001)     ;
(PID.TID 0000.0001) PTRACERS_ImplVertAdv = /* implicit vert. advection flag */
(PID.TID 0000.0001)                   F
(PID.TID 0000.0001)     ;
(PID.TID 0000.0001) PTRACERS_diffKh = /* Laplacian Diffusivity */
(PID.TID 0000.0001)                 0.000000000000000E+00
(PID.TID 0000.0001)     ;
(PID.TID 0000.0001) PTRACERS_diffK4 = /* Biharmonic Diffusivity */
(PID.TID 0000.0001)                 0.000000000000000E+00
(PID.TID 0000.0001)     ;
(PID.TID 0000.0001) PTRACERS_diffKrNr = /* Vertical Diffusivity */
(PID.TID 0000.0001)    35 @  1.000000000000000E-05              /* K =  1: 35 */
(PID.TID 0000.0001)     ;
(PID.TID 0000.0001) PTRACERS_useGMRedi = /* apply GM-Redi */
(PID.TID 0000.0001)                   F
(PID.TID 0000.0001)     ;
(PID.TID 0000.0001) PTRACERS_useDWNSLP = /* apply DOWN-SLOPE Flow */
(PID.TID 0000.0001)                   F
(PID.TID 0000.0001)     ;
(PID.TID 0000.0001) PTRACERS_useKPP = /* apply KPP scheme */
(PID.TID 0000.0001)                   T
(PID.TID 0000.0001)     ;
(PID.TID 0000.0001) PTRACERS_ref = /* Reference vertical profile */
(PID.TID 0000.0001)    35 @  0.000000000000000E+00              /* K =  1: 35 */
(PID.TID 0000.0001)     ;
(PID.TID 0000.0001) PTRACERS_EvPrRn =/* tracer conc. in Evap. & Rain */
(PID.TID 0000.0001)                 1.234567000000000E+05
(PID.TID 0000.0001)     ;
(PID.TID 0000.0001)  -----------------------------------
(PID.TID 0000.0001)  tracer number :   16
(PID.TID 0000.0001) PTRACERS_ioLabel = /* tracer IO Label */
(PID.TID 0000.0001)               '16'
(PID.TID 0000.0001)     ;
(PID.TID 0000.0001) PTRACERS_advScheme = /* Advection Scheme */
(PID.TID 0000.0001)                      33
(PID.TID 0000.0001)     ;
(PID.TID 0000.0001) PTRACERS_ImplVertAdv = /* implicit vert. advection flag */
(PID.TID 0000.0001)                   F
(PID.TID 0000.0001)     ;
(PID.TID 0000.0001) PTRACERS_diffKh = /* Laplacian Diffusivity */
(PID.TID 0000.0001)                 0.000000000000000E+00
(PID.TID 0000.0001)     ;
(PID.TID 0000.0001) PTRACERS_diffK4 = /* Biharmonic Diffusivity */
(PID.TID 0000.0001)                 0.000000000000000E+00
(PID.TID 0000.0001)     ;
(PID.TID 0000.0001) PTRACERS_diffKrNr = /* Vertical Diffusivity */
(PID.TID 0000.0001)    35 @  1.000000000000000E-05              /* K =  1: 35 */
(PID.TID 0000.0001)     ;
(PID.TID 0000.0001) PTRACERS_useGMRedi = /* apply GM-Redi */
(PID.TID 0000.0001)                   F
(PID.TID 0000.0001)     ;
(PID.TID 0000.0001) PTRACERS_useDWNSLP = /* apply DOWN-SLOPE Flow */
(PID.TID 0000.0001)                   F
(PID.TID 0000.0001)     ;
(PID.TID 0000.0001) PTRACERS_useKPP = /* apply KPP scheme */
(PID.TID 0000.0001)                   T
(PID.TID 0000.0001)     ;
(PID.TID 0000.0001) PTRACERS_ref = /* Reference vertical profile */
(PID.TID 0000.0001)    35 @  0.000000000000000E+00              /* K =  1: 35 */
(PID.TID 0000.0001)     ;
(PID.TID 0000.0001) PTRACERS_EvPrRn =/* tracer conc. in Evap. & Rain */
(PID.TID 0000.0001)                 1.234567000000000E+05
(PID.TID 0000.0001)     ;
(PID.TID 0000.0001)  -----------------------------------
(PID.TID 0000.0001)  tracer number :   17
(PID.TID 0000.0001) PTRACERS_ioLabel = /* tracer IO Label */
(PID.TID 0000.0001)               '17'
(PID.TID 0000.0001)     ;
(PID.TID 0000.0001) PTRACERS_advScheme = /* Advection Scheme */
(PID.TID 0000.0001)                      33
(PID.TID 0000.0001)     ;
(PID.TID 0000.0001) PTRACERS_ImplVertAdv = /* implicit vert. advection flag */
(PID.TID 0000.0001)                   F
(PID.TID 0000.0001)     ;
(PID.TID 0000.0001) PTRACERS_diffKh = /* Laplacian Diffusivity */
(PID.TID 0000.0001)                 0.000000000000000E+00
(PID.TID 0000.0001)     ;
(PID.TID 0000.0001) PTRACERS_diffK4 = /* Biharmonic Diffusivity */
(PID.TID 0000.0001)                 0.000000000000000E+00
(PID.TID 0000.0001)     ;
(PID.TID 0000.0001) PTRACERS_diffKrNr = /* Vertical Diffusivity */
(PID.TID 0000.0001)    35 @  1.000000000000000E-05              /* K =  1: 35 */
(PID.TID 0000.0001)     ;
(PID.TID 0000.0001) PTRACERS_useGMRedi = /* apply GM-Redi */
(PID.TID 0000.0001)                   F
(PID.TID 0000.0001)     ;
(PID.TID 0000.0001) PTRACERS_useDWNSLP = /* apply DOWN-SLOPE Flow */
(PID.TID 0000.0001)                   F
(PID.TID 0000.0001)     ;
(PID.TID 0000.0001) PTRACERS_useKPP = /* apply KPP scheme */
(PID.TID 0000.0001)                   T
(PID.TID 0000.0001)     ;
(PID.TID 0000.0001) PTRACERS_ref = /* Reference vertical profile */
(PID.TID 0000.0001)    35 @  0.000000000000000E+00              /* K =  1: 35 */
(PID.TID 0000.0001)     ;
(PID.TID 0000.0001) PTRACERS_EvPrRn =/* tracer conc. in Evap. & Rain */
(PID.TID 0000.0001)                 1.234567000000000E+05
(PID.TID 0000.0001)     ;
(PID.TID 0000.0001)  -----------------------------------
(PID.TID 0000.0001)  tracer number :   18
(PID.TID 0000.0001) PTRACERS_ioLabel = /* tracer IO Label */
(PID.TID 0000.0001)               '18'
(PID.TID 0000.0001)     ;
(PID.TID 0000.0001) PTRACERS_advScheme = /* Advection Scheme */
(PID.TID 0000.0001)                      33
(PID.TID 0000.0001)     ;
(PID.TID 0000.0001) PTRACERS_ImplVertAdv = /* implicit vert. advection flag */
(PID.TID 0000.0001)                   F
(PID.TID 0000.0001)     ;
(PID.TID 0000.0001) PTRACERS_diffKh = /* Laplacian Diffusivity */
(PID.TID 0000.0001)                 0.000000000000000E+00
(PID.TID 0000.0001)     ;
(PID.TID 0000.0001) PTRACERS_diffK4 = /* Biharmonic Diffusivity */
(PID.TID 0000.0001)                 0.000000000000000E+00
(PID.TID 0000.0001)     ;
(PID.TID 0000.0001) PTRACERS_diffKrNr = /* Vertical Diffusivity */
(PID.TID 0000.0001)    35 @  1.000000000000000E-05              /* K =  1: 35 */
(PID.TID 0000.0001)     ;
(PID.TID 0000.0001) PTRACERS_useGMRedi = /* apply GM-Redi */
(PID.TID 0000.0001)                   F
(PID.TID 0000.0001)     ;
(PID.TID 0000.0001) PTRACERS_useDWNSLP = /* apply DOWN-SLOPE Flow */
(PID.TID 0000.0001)                   F
(PID.TID 0000.0001)     ;
(PID.TID 0000.0001) PTRACERS_useKPP = /* apply KPP scheme */
(PID.TID 0000.0001)                   T
(PID.TID 0000.0001)     ;
(PID.TID 0000.0001) PTRACERS_ref = /* Reference vertical profile */
(PID.TID 0000.0001)    35 @  0.000000000000000E+00              /* K =  1: 35 */
(PID.TID 0000.0001)     ;
(PID.TID 0000.0001) PTRACERS_EvPrRn =/* tracer conc. in Evap. & Rain */
(PID.TID 0000.0001)                 1.234567000000000E+05
(PID.TID 0000.0001)     ;
(PID.TID 0000.0001)  -----------------------------------
(PID.TID 0000.0001)  tracer number :   19
(PID.TID 0000.0001) PTRACERS_ioLabel = /* tracer IO Label */
(PID.TID 0000.0001)               '19'
(PID.TID 0000.0001)     ;
(PID.TID 0000.0001) PTRACERS_advScheme = /* Advection Scheme */
(PID.TID 0000.0001)                      33
(PID.TID 0000.0001)     ;
(PID.TID 0000.0001) PTRACERS_ImplVertAdv = /* implicit vert. advection flag */
(PID.TID 0000.0001)                   F
(PID.TID 0000.0001)     ;
(PID.TID 0000.0001) PTRACERS_diffKh = /* Laplacian Diffusivity */
(PID.TID 0000.0001)                 0.000000000000000E+00
(PID.TID 0000.0001)     ;
(PID.TID 0000.0001) PTRACERS_diffK4 = /* Biharmonic Diffusivity */
(PID.TID 0000.0001)                 0.000000000000000E+00
(PID.TID 0000.0001)     ;
(PID.TID 0000.0001) PTRACERS_diffKrNr = /* Vertical Diffusivity */
(PID.TID 0000.0001)    35 @  1.000000000000000E-05              /* K =  1: 35 */
(PID.TID 0000.0001)     ;
(PID.TID 0000.0001) PTRACERS_useGMRedi = /* apply GM-Redi */
(PID.TID 0000.0001)                   F
(PID.TID 0000.0001)     ;
(PID.TID 0000.0001) PTRACERS_useDWNSLP = /* apply DOWN-SLOPE Flow */
(PID.TID 0000.0001)                   F
(PID.TID 0000.0001)     ;
(PID.TID 0000.0001) PTRACERS_useKPP = /* apply KPP scheme */
(PID.TID 0000.0001)                   T
(PID.TID 0000.0001)     ;
(PID.TID 0000.0001) PTRACERS_ref = /* Reference vertical profile */
(PID.TID 0000.0001)    35 @  0.000000000000000E+00              /* K =  1: 35 */
(PID.TID 0000.0001)     ;
(PID.TID 0000.0001) PTRACERS_EvPrRn =/* tracer conc. in Evap. & Rain */
(PID.TID 0000.0001)                 1.234567000000000E+05
(PID.TID 0000.0001)     ;
(PID.TID 0000.0001)  -----------------------------------
(PID.TID 0000.0001)  tracer number :   20
(PID.TID 0000.0001) PTRACERS_ioLabel = /* tracer IO Label */
(PID.TID 0000.0001)               '20'
(PID.TID 0000.0001)     ;
(PID.TID 0000.0001) PTRACERS_advScheme = /* Advection Scheme */
(PID.TID 0000.0001)                      33
(PID.TID 0000.0001)     ;
(PID.TID 0000.0001) PTRACERS_ImplVertAdv = /* implicit vert. advection flag */
(PID.TID 0000.0001)                   F
(PID.TID 0000.0001)     ;
(PID.TID 0000.0001) PTRACERS_diffKh = /* Laplacian Diffusivity */
(PID.TID 0000.0001)                 0.000000000000000E+00
(PID.TID 0000.0001)     ;
(PID.TID 0000.0001) PTRACERS_diffK4 = /* Biharmonic Diffusivity */
(PID.TID 0000.0001)                 0.000000000000000E+00
(PID.TID 0000.0001)     ;
(PID.TID 0000.0001) PTRACERS_diffKrNr = /* Vertical Diffusivity */
(PID.TID 0000.0001)    35 @  1.000000000000000E-05              /* K =  1: 35 */
(PID.TID 0000.0001)     ;
(PID.TID 0000.0001) PTRACERS_useGMRedi = /* apply GM-Redi */
(PID.TID 0000.0001)                   F
(PID.TID 0000.0001)     ;
(PID.TID 0000.0001) PTRACERS_useDWNSLP = /* apply DOWN-SLOPE Flow */
(PID.TID 0000.0001)                   F
(PID.TID 0000.0001)     ;
(PID.TID 0000.0001) PTRACERS_useKPP = /* apply KPP scheme */
(PID.TID 0000.0001)                   T
(PID.TID 0000.0001)     ;
(PID.TID 0000.0001) PTRACERS_ref = /* Reference vertical profile */
(PID.TID 0000.0001)    35 @  0.000000000000000E+00              /* K =  1: 35 */
(PID.TID 0000.0001)     ;
(PID.TID 0000.0001) PTRACERS_EvPrRn =/* tracer conc. in Evap. & Rain */
(PID.TID 0000.0001)                 1.234567000000000E+05
(PID.TID 0000.0001)     ;
(PID.TID 0000.0001)  -----------------------------------
(PID.TID 0000.0001)  tracer number :   21
(PID.TID 0000.0001) PTRACERS_ioLabel = /* tracer IO Label */
(PID.TID 0000.0001)               '21'
(PID.TID 0000.0001)     ;
(PID.TID 0000.0001) PTRACERS_advScheme = /* Advection Scheme */
(PID.TID 0000.0001)                      33
(PID.TID 0000.0001)     ;
(PID.TID 0000.0001) PTRACERS_ImplVertAdv = /* implicit vert. advection flag */
(PID.TID 0000.0001)                   F
(PID.TID 0000.0001)     ;
(PID.TID 0000.0001) PTRACERS_diffKh = /* Laplacian Diffusivity */
(PID.TID 0000.0001)                 0.000000000000000E+00
(PID.TID 0000.0001)     ;
(PID.TID 0000.0001) PTRACERS_diffK4 = /* Biharmonic Diffusivity */
(PID.TID 0000.0001)                 0.000000000000000E+00
(PID.TID 0000.0001)     ;
(PID.TID 0000.0001) PTRACERS_diffKrNr = /* Vertical Diffusivity */
(PID.TID 0000.0001)    35 @  1.000000000000000E-05              /* K =  1: 35 */
(PID.TID 0000.0001)     ;
(PID.TID 0000.0001) PTRACERS_useGMRedi = /* apply GM-Redi */
(PID.TID 0000.0001)                   F
(PID.TID 0000.0001)     ;
(PID.TID 0000.0001) PTRACERS_useDWNSLP = /* apply DOWN-SLOPE Flow */
(PID.TID 0000.0001)                   F
(PID.TID 0000.0001)     ;
(PID.TID 0000.0001) PTRACERS_useKPP = /* apply KPP scheme */
(PID.TID 0000.0001)                   T
(PID.TID 0000.0001)     ;
(PID.TID 0000.0001) PTRACERS_ref = /* Reference vertical profile */
(PID.TID 0000.0001)    35 @  0.000000000000000E+00              /* K =  1: 35 */
(PID.TID 0000.0001)     ;
(PID.TID 0000.0001) PTRACERS_EvPrRn =/* tracer conc. in Evap. & Rain */
(PID.TID 0000.0001)                 1.234567000000000E+05
(PID.TID 0000.0001)     ;
(PID.TID 0000.0001)  -----------------------------------
(PID.TID 0000.0001)  tracer number :   22
(PID.TID 0000.0001) PTRACERS_ioLabel = /* tracer IO Label */
(PID.TID 0000.0001)               '22'
(PID.TID 0000.0001)     ;
(PID.TID 0000.0001) PTRACERS_advScheme = /* Advection Scheme */
(PID.TID 0000.0001)                      33
(PID.TID 0000.0001)     ;
(PID.TID 0000.0001) PTRACERS_ImplVertAdv = /* implicit vert. advection flag */
(PID.TID 0000.0001)                   F
(PID.TID 0000.0001)     ;
(PID.TID 0000.0001) PTRACERS_diffKh = /* Laplacian Diffusivity */
(PID.TID 0000.0001)                 0.000000000000000E+00
(PID.TID 0000.0001)     ;
(PID.TID 0000.0001) PTRACERS_diffK4 = /* Biharmonic Diffusivity */
(PID.TID 0000.0001)                 0.000000000000000E+00
(PID.TID 0000.0001)     ;
(PID.TID 0000.0001) PTRACERS_diffKrNr = /* Vertical Diffusivity */
(PID.TID 0000.0001)    35 @  1.000000000000000E-05              /* K =  1: 35 */
(PID.TID 0000.0001)     ;
(PID.TID 0000.0001) PTRACERS_useGMRedi = /* apply GM-Redi */
(PID.TID 0000.0001)                   F
(PID.TID 0000.0001)     ;
(PID.TID 0000.0001) PTRACERS_useDWNSLP = /* apply DOWN-SLOPE Flow */
(PID.TID 0000.0001)                   F
(PID.TID 0000.0001)     ;
(PID.TID 0000.0001) PTRACERS_useKPP = /* apply KPP scheme */
(PID.TID 0000.0001)                   T
(PID.TID 0000.0001)     ;
(PID.TID 0000.0001) PTRACERS_ref = /* Reference vertical profile */
(PID.TID 0000.0001)    35 @  0.000000000000000E+00              /* K =  1: 35 */
(PID.TID 0000.0001)     ;
(PID.TID 0000.0001) PTRACERS_EvPrRn =/* tracer conc. in Evap. & Rain */
(PID.TID 0000.0001)                 1.234567000000000E+05
(PID.TID 0000.0001)     ;
(PID.TID 0000.0001)  -----------------------------------
(PID.TID 0000.0001)  tracer number :   23
(PID.TID 0000.0001) PTRACERS_ioLabel = /* tracer IO Label */
(PID.TID 0000.0001)               '23'
(PID.TID 0000.0001)     ;
(PID.TID 0000.0001) PTRACERS_advScheme = /* Advection Scheme */
(PID.TID 0000.0001)                      33
(PID.TID 0000.0001)     ;
(PID.TID 0000.0001) PTRACERS_ImplVertAdv = /* implicit vert. advection flag */
(PID.TID 0000.0001)                   F
(PID.TID 0000.0001)     ;
(PID.TID 0000.0001) PTRACERS_diffKh = /* Laplacian Diffusivity */
(PID.TID 0000.0001)                 0.000000000000000E+00
(PID.TID 0000.0001)     ;
(PID.TID 0000.0001) PTRACERS_diffK4 = /* Biharmonic Diffusivity */
(PID.TID 0000.0001)                 0.000000000000000E+00
(PID.TID 0000.0001)     ;
(PID.TID 0000.0001) PTRACERS_diffKrNr = /* Vertical Diffusivity */
(PID.TID 0000.0001)    35 @  1.000000000000000E-05              /* K =  1: 35 */
(PID.TID 0000.0001)     ;
(PID.TID 0000.0001) PTRACERS_useGMRedi = /* apply GM-Redi */
(PID.TID 0000.0001)                   F
(PID.TID 0000.0001)     ;
(PID.TID 0000.0001) PTRACERS_useDWNSLP = /* apply DOWN-SLOPE Flow */
(PID.TID 0000.0001)                   F
(PID.TID 0000.0001)     ;
(PID.TID 0000.0001) PTRACERS_useKPP = /* apply KPP scheme */
(PID.TID 0000.0001)                   T
(PID.TID 0000.0001)     ;
(PID.TID 0000.0001) PTRACERS_ref = /* Reference vertical profile */
(PID.TID 0000.0001)    35 @  0.000000000000000E+00              /* K =  1: 35 */
(PID.TID 0000.0001)     ;
(PID.TID 0000.0001) PTRACERS_EvPrRn =/* tracer conc. in Evap. & Rain */
(PID.TID 0000.0001)                 1.234567000000000E+05
(PID.TID 0000.0001)     ;
(PID.TID 0000.0001)  -----------------------------------
(PID.TID 0000.0001)  GCHEM_READPARMS: opening data.gchem
(PID.TID 0000.0001)  OPEN_COPY_DATA_FILE: opening file data.gchem
(PID.TID 0000.0001) // =======================================================
(PID.TID 0000.0001) // Parameter file "data.gchem"
(PID.TID 0000.0001) // =======================================================
(PID.TID 0000.0001) > &GCHEM_PARM01
(PID.TID 0000.0001) >  useDARWIN=.TRUE.,
(PID.TID 0000.0001) >  nsubtime=1,
(PID.TID 0000.0001) > /
(PID.TID 0000.0001) 
(PID.TID 0000.0001)  GCHEM_READPARMS: finished reading data.gchem
(PID.TID 0000.0001)  DARWIN_READPARMS: opening data.darwin
(PID.TID 0000.0001)  OPEN_COPY_DATA_FILE: opening file data.darwin
(PID.TID 0000.0001) // =======================================================
(PID.TID 0000.0001) // Parameter file "data.darwin"
(PID.TID 0000.0001) // =======================================================
(PID.TID 0000.0001) > &DARWIN_FORCING
(PID.TID 0000.0001) > darwin_ironFile='input/loc1_FeFlux_monsurf.bin',
(PID.TID 0000.0001) > darwin_PARFile='input/loc1_PAR_monsurf.bin',
(PID.TID 0000.0001) > darwin_ForcingPeriod=2592000.,
(PID.TID 0000.0001) > darwin_ForcingCycle=31104000.,
(PID.TID 0000.0001) > darwin_seed=11231,
(PID.TID 0000.0001) > /
(PID.TID 0000.0001) 
(PID.TID 0000.0001)  DARWIN_READPARMS: finished reading data.darwin
(PID.TID 0000.0001) SET_PARMS: done
(PID.TID 0000.0001) Enter INI_VERTICAL_GRID: setInterFDr=    T ; setCenterDr=    F
(PID.TID 0000.0001) %MON XC_max                       =   5.0000000000000E-01
(PID.TID 0000.0001) %MON XC_min                       =   5.0000000000000E-01
(PID.TID 0000.0001) %MON XC_mean                      =   5.0000000000000E-01
(PID.TID 0000.0001) %MON XC_sd                        =   0.0000000000000E+00
(PID.TID 0000.0001) %MON XG_max                       =   0.0000000000000E+00
(PID.TID 0000.0001) %MON XG_min                       =   0.0000000000000E+00
(PID.TID 0000.0001) %MON XG_mean                      =   0.0000000000000E+00
(PID.TID 0000.0001) %MON XG_sd                        =   0.0000000000000E+00
(PID.TID 0000.0001) %MON DXC_max                      =   7.9297382804169E+04
(PID.TID 0000.0001) %MON DXC_min                      =   7.9297382804169E+04
(PID.TID 0000.0001) %MON DXC_mean                     =   7.9297382804169E+04
(PID.TID 0000.0001) %MON DXC_sd                       =   0.0000000000000E+00
(PID.TID 0000.0001) %MON DXF_max                      =   7.9297382804169E+04
(PID.TID 0000.0001) %MON DXF_min                      =   7.9297382804169E+04
(PID.TID 0000.0001) %MON DXF_mean                     =   7.9297382804169E+04
(PID.TID 0000.0001) %MON DXF_sd                       =   0.0000000000000E+00
(PID.TID 0000.0001) %MON DXG_max                      =   7.8614345322413E+04
(PID.TID 0000.0001) %MON DXG_min                      =   7.8614345322413E+04
(PID.TID 0000.0001) %MON DXG_mean                     =   7.8614345322413E+04
(PID.TID 0000.0001) %MON DXG_sd                       =   0.0000000000000E+00
(PID.TID 0000.0001) %MON DXV_max                      =   7.8614345322413E+04
(PID.TID 0000.0001) %MON DXV_min                      =   7.8614345322413E+04
(PID.TID 0000.0001) %MON DXV_mean                     =   7.8614345322413E+04
(PID.TID 0000.0001) %MON DXV_sd                       =   0.0000000000000E+00
(PID.TID 0000.0001) %MON YC_max                       =  -4.4500000000000E+01
(PID.TID 0000.0001) %MON YC_min                       =  -4.4500000000000E+01
(PID.TID 0000.0001) %MON YC_mean                      =  -4.4500000000000E+01
(PID.TID 0000.0001) %MON YC_sd                        =   0.0000000000000E+00
(PID.TID 0000.0001) %MON YG_max                       =  -4.5000000000000E+01
(PID.TID 0000.0001) %MON YG_min                       =  -4.5000000000000E+01
(PID.TID 0000.0001) %MON YG_mean                      =  -4.5000000000000E+01
(PID.TID 0000.0001) %MON YG_sd                        =   0.0000000000000E+00
(PID.TID 0000.0001) %MON DYC_max                      =   1.1117747335204E+05
(PID.TID 0000.0001) %MON DYC_min                      =   1.1117747335204E+05
(PID.TID 0000.0001) %MON DYC_mean                     =   1.1117747335204E+05
(PID.TID 0000.0001) %MON DYC_sd                       =   0.0000000000000E+00
(PID.TID 0000.0001) %MON DYF_max                      =   1.1117747335204E+05
(PID.TID 0000.0001) %MON DYF_min                      =   1.1117747335204E+05
(PID.TID 0000.0001) %MON DYF_mean                     =   1.1117747335204E+05
(PID.TID 0000.0001) %MON DYF_sd                       =   0.0000000000000E+00
(PID.TID 0000.0001) %MON DYG_max                      =   1.1117747335204E+05
(PID.TID 0000.0001) %MON DYG_min                      =   1.1117747335204E+05
(PID.TID 0000.0001) %MON DYG_mean                     =   1.1117747335204E+05
(PID.TID 0000.0001) %MON DYG_sd                       =   0.0000000000000E+00
(PID.TID 0000.0001) %MON DYU_max                      =   1.1117747335204E+05
(PID.TID 0000.0001) %MON DYU_min                      =   1.1117747335204E+05
(PID.TID 0000.0001) %MON DYU_mean                     =   1.1117747335204E+05
(PID.TID 0000.0001) %MON DYU_sd                       =   0.0000000000000E+00
(PID.TID 0000.0001) %MON RA_max                       =   8.8159707668415E+09
(PID.TID 0000.0001) %MON RA_min                       =   8.8159707668415E+09
(PID.TID 0000.0001) %MON RA_mean                      =   8.8159707668415E+09
(PID.TID 0000.0001) %MON RA_sd                        =   0.0000000000000E+00
(PID.TID 0000.0001) %MON RAW_max                      =   8.8159707668415E+09
(PID.TID 0000.0001) %MON RAW_min                      =   8.8159707668415E+09
(PID.TID 0000.0001) %MON RAW_mean                     =   8.8159707668415E+09
(PID.TID 0000.0001) %MON RAW_sd                       =   0.0000000000000E+00
(PID.TID 0000.0001) %MON RAS_max                      =   8.7400333492513E+09
(PID.TID 0000.0001) %MON RAS_min                      =   8.7400333492513E+09
(PID.TID 0000.0001) %MON RAS_mean                     =   8.7400333492513E+09
(PID.TID 0000.0001) %MON RAS_sd                       =   0.0000000000000E+00
(PID.TID 0000.0001) %MON RAZ_max                      =   8.7400333492513E+09
(PID.TID 0000.0001) %MON RAZ_min                      =   8.7400333492513E+09
(PID.TID 0000.0001) %MON RAZ_mean                     =   8.7400333492513E+09
(PID.TID 0000.0001) %MON RAZ_sd                       =   0.0000000000000E+00
(PID.TID 0000.0001) %MON AngleCS_max                  =   1.0000000000000E+00
(PID.TID 0000.0001) %MON AngleCS_min                  =   1.0000000000000E+00
(PID.TID 0000.0001) %MON AngleCS_mean                 =   1.0000000000000E+00
(PID.TID 0000.0001) %MON AngleCS_sd                   =   0.0000000000000E+00
(PID.TID 0000.0001) %MON AngleSN_max                  =   0.0000000000000E+00
(PID.TID 0000.0001) %MON AngleSN_min                  =   0.0000000000000E+00
(PID.TID 0000.0001) %MON AngleSN_mean                 =   0.0000000000000E+00
(PID.TID 0000.0001) %MON AngleSN_sd                   =   0.0000000000000E+00
(PID.TID 0000.0001)  MDS_READ_FIELD: opening global file: input/bathyneg.bin
(PID.TID 0000.0001) // =======================================================
(PID.TID 0000.0001) // Field Model R_low (ini_masks_etc) at iteration          1
(PID.TID 0000.0001) // CMIN =         -3.495000000000000E+03
(PID.TID 0000.0001) // CMAX =         -3.495000000000000E+03
(PID.TID 0000.0001) // CINT =          0.000000000000000E+00
(PID.TID 0000.0001) // SYMBOLS (CMIN->CMAX): -abcdefghijklmnopqrstuvwxyz+
(PID.TID 0000.0001) //                  0.0: .
(PID.TID 0000.0001) // RANGE I (Lo:Hi:Step):(  -1:   3:   1)
(PID.TID 0000.0001) // RANGE J (Lo:Hi:Step):(   3:  -1:  -1)
(PID.TID 0000.0001) // RANGE K (Lo:Hi:Step):(   1:   1:   1)
(PID.TID 0000.0001) // =======================================================
(PID.TID 0000.0001) // =======================================================
(PID.TID 0000.0001) // END OF FIELD                                          =
(PID.TID 0000.0001) // =======================================================
(PID.TID 0000.0001) 
(PID.TID 0000.0001) // =======================================================
(PID.TID 0000.0001) // Field Model Ro_surf (ini_masks_etc) at iteration          1
(PID.TID 0000.0001) // CMIN =          1.000000000000000E+32
(PID.TID 0000.0001) // CMAX =         -1.000000000000000E+32
(PID.TID 0000.0001) // CINT =          0.000000000000000E+00
(PID.TID 0000.0001) // SYMBOLS (CMIN->CMAX): -abcdefghijklmnopqrstuvwxyz+
(PID.TID 0000.0001) //                  0.0: .
(PID.TID 0000.0001) // RANGE I (Lo:Hi:Step):(  -1:   3:   1)
(PID.TID 0000.0001) // RANGE J (Lo:Hi:Step):(   3:  -1:  -1)
(PID.TID 0000.0001) // RANGE K (Lo:Hi:Step):(   1:   1:   1)
(PID.TID 0000.0001) // =======================================================
(PID.TID 0000.0001) // =======================================================
(PID.TID 0000.0001) // END OF FIELD                                          =
(PID.TID 0000.0001) // =======================================================
(PID.TID 0000.0001) 
(PID.TID 0000.0001) // =======================================================
(PID.TID 0000.0001) // Field hFacC at iteration          1
(PID.TID 0000.0001) // CMIN =          1.000000000000000E+00
(PID.TID 0000.0001) // CMAX =          1.000000000000000E+00
(PID.TID 0000.0001) // CINT =          0.000000000000000E+00
(PID.TID 0000.0001) // SYMBOLS (CMIN->CMAX): -abcdefghijklmnopqrstuvwxyz+
(PID.TID 0000.0001) //                  0.0: .
(PID.TID 0000.0001) // RANGE I (Lo:Hi:Step):(  -1:   3:   1)
(PID.TID 0000.0001) // RANGE J (Lo:Hi:Step):(   3:  -1:  -1)
(PID.TID 0000.0001) // RANGE K (Lo:Hi:Step):(   1:   1:   1)
(PID.TID 0000.0001) // =======================================================
(PID.TID 0000.0001) // =======================================================
(PID.TID 0000.0001) // END OF FIELD                                          =
(PID.TID 0000.0001) // =======================================================
(PID.TID 0000.0001) 
(PID.TID 0000.0001) // =======================================================
(PID.TID 0000.0001) // Field hFacW at iteration          1
(PID.TID 0000.0001) // CMIN =          1.000000000000000E+00
(PID.TID 0000.0001) // CMAX =          1.000000000000000E+00
(PID.TID 0000.0001) // CINT =          0.000000000000000E+00
(PID.TID 0000.0001) // SYMBOLS (CMIN->CMAX): -abcdefghijklmnopqrstuvwxyz+
(PID.TID 0000.0001) //                  0.0: .
(PID.TID 0000.0001) // RANGE I (Lo:Hi:Step):(  -1:   3:   1)
(PID.TID 0000.0001) // RANGE J (Lo:Hi:Step):(   3:  -1:  -1)
(PID.TID 0000.0001) // RANGE K (Lo:Hi:Step):(   1:   1:   1)
(PID.TID 0000.0001) // =======================================================
(PID.TID 0000.0001) // =======================================================
(PID.TID 0000.0001) // END OF FIELD                                          =
(PID.TID 0000.0001) // =======================================================
(PID.TID 0000.0001) 
(PID.TID 0000.0001) // =======================================================
(PID.TID 0000.0001) // Field hFacS at iteration          1
(PID.TID 0000.0001) // CMIN =          1.000000000000000E+00
(PID.TID 0000.0001) // CMAX =          1.000000000000000E+00
(PID.TID 0000.0001) // CINT =          0.000000000000000E+00
(PID.TID 0000.0001) // SYMBOLS (CMIN->CMAX): -abcdefghijklmnopqrstuvwxyz+
(PID.TID 0000.0001) //                  0.0: .
(PID.TID 0000.0001) // RANGE I (Lo:Hi:Step):(  -1:   3:   1)
(PID.TID 0000.0001) // RANGE J (Lo:Hi:Step):(   3:  -1:  -1)
(PID.TID 0000.0001) // RANGE K (Lo:Hi:Step):(   1:   1:   1)
(PID.TID 0000.0001) // =======================================================
(PID.TID 0000.0001) // =======================================================
(PID.TID 0000.0001) // END OF FIELD                                          =
(PID.TID 0000.0001) // =======================================================
(PID.TID 0000.0001) 
(PID.TID 0000.0001) 
(PID.TID 0000.0001) // ===================================
(PID.TID 0000.0001) // GAD parameters :
(PID.TID 0000.0001) // ===================================
(PID.TID 0000.0001) tempAdvScheme =   /* Temp. Horiz.Advection scheme selector */
(PID.TID 0000.0001)                       3
(PID.TID 0000.0001)     ;
(PID.TID 0000.0001) tempVertAdvScheme =   /* Temp. Vert. Advection scheme selector */
(PID.TID 0000.0001)                       3
(PID.TID 0000.0001)     ;
(PID.TID 0000.0001) tempMultiDimAdvec =   /* use Muti-Dim Advec method for Temp */
(PID.TID 0000.0001)                   F
(PID.TID 0000.0001)     ;
(PID.TID 0000.0001) tempSOM_Advection = /* use 2nd Order Moment Advection for Temp */
(PID.TID 0000.0001)                   F
(PID.TID 0000.0001)     ;
(PID.TID 0000.0001) AdamsBashforthGt = /* apply Adams-Bashforth extrapolation on Gt */
(PID.TID 0000.0001)                   T
(PID.TID 0000.0001)     ;
(PID.TID 0000.0001) AdamsBashforth_T = /* apply Adams-Bashforth extrapolation on Temp */
(PID.TID 0000.0001)                   F
(PID.TID 0000.0001)     ;
(PID.TID 0000.0001) saltAdvScheme =   /* Salt. Horiz.advection scheme selector */
(PID.TID 0000.0001)                       3
(PID.TID 0000.0001)     ;
(PID.TID 0000.0001) saltVertAdvScheme =   /* Salt. Vert. Advection scheme selector */
(PID.TID 0000.0001)                       3
(PID.TID 0000.0001)     ;
(PID.TID 0000.0001) saltMultiDimAdvec =   /* use Muti-Dim Advec method for Salt */
(PID.TID 0000.0001)                   F
(PID.TID 0000.0001)     ;
(PID.TID 0000.0001) saltSOM_Advection = /* use 2nd Order Moment Advection for Salt */
(PID.TID 0000.0001)                   F
(PID.TID 0000.0001)     ;
(PID.TID 0000.0001) AdamsBashforthGs = /* apply Adams-Bashforth extrapolation on Gs */
(PID.TID 0000.0001)                   F
(PID.TID 0000.0001)     ;
(PID.TID 0000.0001) AdamsBashforth_S = /* apply Adams-Bashforth extrapolation on Salt */
(PID.TID 0000.0001)                   F
(PID.TID 0000.0001)     ;
(PID.TID 0000.0001) // ===================================
(PID.TID 0000.0001) PTRACERS_INIT_FIXED: PTRACERS_SOM_Advection(   1) =     F
(PID.TID 0000.0001) PTRACERS_INIT_FIXED: PTRACERS_SOM_Advection(   2) =     F
(PID.TID 0000.0001) PTRACERS_INIT_FIXED: PTRACERS_SOM_Advection(   3) =     F
(PID.TID 0000.0001) PTRACERS_INIT_FIXED: PTRACERS_SOM_Advection(   4) =     F
(PID.TID 0000.0001) PTRACERS_INIT_FIXED: PTRACERS_SOM_Advection(   5) =     F
(PID.TID 0000.0001) PTRACERS_INIT_FIXED: PTRACERS_SOM_Advection(   6) =     F
(PID.TID 0000.0001) PTRACERS_INIT_FIXED: PTRACERS_SOM_Advection(   7) =     F
(PID.TID 0000.0001) PTRACERS_INIT_FIXED: PTRACERS_SOM_Advection(   8) =     F
(PID.TID 0000.0001) PTRACERS_INIT_FIXED: PTRACERS_SOM_Advection(   9) =     F
(PID.TID 0000.0001) PTRACERS_INIT_FIXED: PTRACERS_SOM_Advection(  10) =     F
(PID.TID 0000.0001) PTRACERS_INIT_FIXED: PTRACERS_SOM_Advection(  11) =     F
(PID.TID 0000.0001) PTRACERS_INIT_FIXED: PTRACERS_SOM_Advection(  12) =     F
(PID.TID 0000.0001) PTRACERS_INIT_FIXED: PTRACERS_SOM_Advection(  13) =     F
(PID.TID 0000.0001) PTRACERS_INIT_FIXED: PTRACERS_SOM_Advection(  14) =     F
(PID.TID 0000.0001) PTRACERS_INIT_FIXED: PTRACERS_SOM_Advection(  15) =     F
(PID.TID 0000.0001) PTRACERS_INIT_FIXED: PTRACERS_SOM_Advection(  16) =     F
[...]
(PID.TID 0000.0001) %MON extforcing_qsw_sd            =   0.0000000000000E+00
(PID.TID 0000.0001) %MON extforcing_qsw_del2          =   0.0000000000000E+00
(PID.TID 0000.0001) %MON extforcing_empmr_max         =   0.0000000000000E+00
(PID.TID 0000.0001) %MON extforcing_empmr_min         =   0.0000000000000E+00
(PID.TID 0000.0001) %MON extforcing_empmr_mean        =   0.0000000000000E+00
(PID.TID 0000.0001) %MON extforcing_empmr_sd          =   0.0000000000000E+00
(PID.TID 0000.0001) %MON extforcing_empmr_del2        =   0.0000000000000E+00
(PID.TID 0000.0001) %MON extforcing_fu_max            =   2.2649708559116E+00
(PID.TID 0000.0001) %MON extforcing_fu_min            =   2.2649708559116E+00
(PID.TID 0000.0001) %MON extforcing_fu_mean           =   2.2649708559116E+00
(PID.TID 0000.0001) %MON extforcing_fu_sd             =   0.0000000000000E+00
(PID.TID 0000.0001) %MON extforcing_fu_del2           =   0.0000000000000E+00
(PID.TID 0000.0001) %MON extforcing_fv_max            =  -4.1337500251830E-01
(PID.TID 0000.0001) %MON extforcing_fv_min            =  -4.1337500251830E-01
(PID.TID 0000.0001) %MON extforcing_fv_mean           =  -4.1337500251830E-01
(PID.TID 0000.0001) %MON extforcing_fv_sd             =   0.0000000000000E+00
(PID.TID 0000.0001) %MON extforcing_fv_del2           =   0.0000000000000E+00
(PID.TID 0000.0001) %MON advcfl_uvel_max              =   0.0000000000000E+00
(PID.TID 0000.0001) %MON advcfl_vvel_max              =   0.0000000000000E+00
(PID.TID 0000.0001) %MON advcfl_wvel_max              =   0.0000000000000E+00
(PID.TID 0000.0001) %MON advcfl_W_hf_max              =   0.0000000000000E+00
(PID.TID 0000.0001) %MON pe_b_mean                    =   0.0000000000000E+00
(PID.TID 0000.0001) %MON ke_max                       =   0.0000000000000E+00
(PID.TID 0000.0001) %MON ke_mean                      =   0.0000000000000E+00
(PID.TID 0000.0001) %MON ke_vol                       =   3.0811817830111E+13
(PID.TID 0000.0001) %MON vort_r_min                   =   0.0000000000000E+00
(PID.TID 0000.0001) %MON vort_r_max                   =   0.0000000000000E+00
(PID.TID 0000.0001) %MON vort_a_mean                  =  -1.0312619976228E-04
(PID.TID 0000.0001) %MON vort_a_sd                    =   2.8760747774580E-12
(PID.TID 0000.0001) %MON vort_p_mean                  =  -1.0312619976228E-04
(PID.TID 0000.0001) %MON vort_p_sd                    =   2.8760747774580E-12
(PID.TID 0000.0001) %MON surfExpan_theta_mean         =   0.0000000000000E+00
(PID.TID 0000.0001) %MON surfExpan_salt_mean          =   0.0000000000000E+00
(PID.TID 0000.0001) // =======================================================
(PID.TID 0000.0001) // End MONITOR dynamic field statistics
(PID.TID 0000.0001) // =======================================================
(PID.TID 0000.0001) // =======================================================
(PID.TID 0000.0001) // Begin MONITOR ptracer field statistics
(PID.TID 0000.0001) // =======================================================
(PID.TID 0000.0001) %MON trcstat_ptracer01_max        =   2.3152034102186E+00
(PID.TID 0000.0001) %MON trcstat_ptracer01_min        =   1.0873972964851E+00
(PID.TID 0000.0001) %MON trcstat_ptracer01_mean       =   2.0495269886648E+00
(PID.TID 0000.0001) %MON trcstat_ptracer01_sd         =   2.5610440226001E-01
(PID.TID 0000.0001) %MON trcstat_ptracer01_del2       =   0.0000000000000E+00
(PID.TID 0000.0001) %MON trcstat_ptracer02_max        =   3.3950305117557E+01
(PID.TID 0000.0001) %MON trcstat_ptracer02_min        =   1.6869943956577E+01
(PID.TID 0000.0001) %MON trcstat_ptracer02_mean       =   3.0465928029264E+01
(PID.TID 0000.0001) %MON trcstat_ptracer02_sd         =   3.3243914468061E+00
(PID.TID 0000.0001) %MON trcstat_ptracer02_del2       =   0.0000000000000E+00
(PID.TID 0000.0001) %MON trcstat_ptracer03_max        =   1.3005214090050E-03
(PID.TID 0000.0001) %MON trcstat_ptracer03_min        =   1.2999416722817E-03
(PID.TID 0000.0001) %MON trcstat_ptracer03_mean       =   1.2999693619403E-03
(PID.TID 0000.0001) %MON trcstat_ptracer03_sd         =   6.5961489461131E-08
(PID.TID 0000.0001) %MON trcstat_ptracer03_del2       =   0.0000000000000E+00
(PID.TID 0000.0001) %MON trcstat_ptracer04_max        =   9.2368790354694E+01
(PID.TID 0000.0001) %MON trcstat_ptracer04_min        =   4.8377684675115E-01
(PID.TID 0000.0001) %MON trcstat_ptracer04_mean       =   6.0517938774863E+01
(PID.TID 0000.0001) %MON trcstat_ptracer04_sd         =   2.7564388520116E+01
(PID.TID 0000.0001) %MON trcstat_ptracer04_del2       =   0.0000000000000E+00
(PID.TID 0000.0001) %MON trcstat_ptracer05_max        =   1.5281357044409E-01
(PID.TID 0000.0001) %MON trcstat_ptracer05_min        =   5.9803335208453E-38
(PID.TID 0000.0001) %MON trcstat_ptracer05_mean       =   6.2430272056626E-03
(PID.TID 0000.0001) %MON trcstat_ptracer05_sd         =   2.5446702875661E-02
(PID.TID 0000.0001) %MON trcstat_ptracer05_del2       =   0.0000000000000E+00
(PID.TID 0000.0001) %MON trcstat_ptracer06_max        =   2.4450171271054E+00
(PID.TID 0000.0001) %MON trcstat_ptracer06_min        =   9.5685336333525E-37
(PID.TID 0000.0001) %MON trcstat_ptracer06_mean       =   9.9888435290601E-02
(PID.TID 0000.0001) %MON trcstat_ptracer06_sd         =   4.0714724601058E-01
(PID.TID 0000.0001) %MON trcstat_ptracer06_del2       =   0.0000000000000E+00
(PID.TID 0000.0001) %MON trcstat_ptracer07_max        =   1.5281356775515E-04
(PID.TID 0000.0001) %MON trcstat_ptracer07_min        =   5.9803316383587E-41
(PID.TID 0000.0001) %MON trcstat_ptracer07_mean       =   6.2430272074108E-06
(PID.TID 0000.0001) %MON trcstat_ptracer07_sd         =   2.5446702811208E-05
(PID.TID 0000.0001) %MON trcstat_ptracer07_del2       =   0.0000000000000E+00
(PID.TID 0000.0001) %MON trcstat_ptracer08_max        =   2.3605044468330E-02
(PID.TID 0000.0001) %MON trcstat_ptracer08_min        =   4.1647396435827E-70
(PID.TID 0000.0001) %MON trcstat_ptracer08_mean       =   6.8525369885577E-04
(PID.TID 0000.0001) %MON trcstat_ptracer08_sd         =   3.5289849070523E-03
(PID.TID 0000.0001) %MON trcstat_ptracer08_del2       =   0.0000000000000E+00
(PID.TID 0000.0001) %MON trcstat_ptracer09_max        =   3.7768071149328E-01
(PID.TID 0000.0001) %MON trcstat_ptracer09_min        =   6.6635834297323E-69
(PID.TID 0000.0001) %MON trcstat_ptracer09_mean       =   1.0964059181692E-02
(PID.TID 0000.0001) %MON trcstat_ptracer09_sd         =   5.6463758512836E-02
(PID.TID 0000.0001) %MON trcstat_ptracer09_del2       =   0.0000000000000E+00
(PID.TID 0000.0001) %MON trcstat_ptracer10_max        =   2.3605044424674E-05
(PID.TID 0000.0001) %MON trcstat_ptracer10_min        =   4.1647398959094E-73
(PID.TID 0000.0001) %MON trcstat_ptracer10_mean       =   6.8525368910137E-07
(PID.TID 0000.0001) %MON trcstat_ptracer10_sd         =   3.5289848283817E-06
(PID.TID 0000.0001) %MON trcstat_ptracer10_del2       =   0.0000000000000E+00
(PID.TID 0000.0001) %MON trcstat_ptracer11_max        =   1.6536026592033E-07
(PID.TID 0000.0001) %MON trcstat_ptracer11_min        =   1.8462190063140E-99
(PID.TID 0000.0001) %MON trcstat_ptracer11_mean       =   2.0041037862901E-08
(PID.TID 0000.0001) %MON trcstat_ptracer11_sd         =   4.6653120952566E-08
(PID.TID 0000.0001) %MON trcstat_ptracer11_del2       =   0.0000000000000E+00
(PID.TID 0000.0001) %MON trcstat_ptracer12_max        =   2.3605055941976E-02
(PID.TID 0000.0001) %MON trcstat_ptracer12_min        =   4.1647396453893E-70
(PID.TID 0000.0001) %MON trcstat_ptracer12_mean       =   6.8525393756322E-04
(PID.TID 0000.0001) %MON trcstat_ptracer12_sd         =   3.5289863365228E-03
(PID.TID 0000.0001) %MON trcstat_ptracer12_del2       =   0.0000000000000E+00
(PID.TID 0000.0001) %MON trcstat_ptracer13_max        =   3.7768089507162E-01
(PID.TID 0000.0001) %MON trcstat_ptracer13_min        =   6.6635834326229E-69
(PID.TID 0000.0001) %MON trcstat_ptracer13_mean       =   1.0964063001012E-02
(PID.TID 0000.0001) %MON trcstat_ptracer13_sd         =   5.6463781384365E-02
(PID.TID 0000.0001) %MON trcstat_ptracer13_del2       =   0.0000000000000E+00
(PID.TID 0000.0001) %MON trcstat_ptracer14_max        =   2.3605055898321E-05
(PID.TID 0000.0001) %MON trcstat_ptracer14_min        =   4.1647398977161E-73
(PID.TID 0000.0001) %MON trcstat_ptracer14_mean       =   6.8525392780882E-07
(PID.TID 0000.0001) %MON trcstat_ptracer14_sd         =   3.5289862578523E-06
(PID.TID 0000.0001) %MON trcstat_ptracer14_del2       =   0.0000000000000E+00
(PID.TID 0000.0001) %MON trcstat_ptracer15_max        =   1.6536026592033E-07
(PID.TID 0000.0001) %MON trcstat_ptracer15_min        =   1.8462190063140E-99
(PID.TID 0000.0001) %MON trcstat_ptracer15_mean       =   2.0041037862901E-08
(PID.TID 0000.0001) %MON trcstat_ptracer15_sd         =   4.6653120952566E-08
(PID.TID 0000.0001) %MON trcstat_ptracer15_del2       =   0.0000000000000E+00
(PID.TID 0000.0001) %MON trcstat_ptracer16_max        =   2.6413327620430E-02
(PID.TID 0000.0001) %MON trcstat_ptracer16_min        =   3.2617871767617E-05
(PID.TID 0000.0001) %MON trcstat_ptracer16_mean       =   4.7193662209298E-03
(PID.TID 0000.0001) %MON trcstat_ptracer16_sd         =   7.6652103986409E-03
(PID.TID 0000.0001) %MON trcstat_ptracer16_del2       =   0.0000000000000E+00
(PID.TID 0000.0001) %MON trcstat_ptracer17_max        =   4.2261324192689E-01
(PID.TID 0000.0001) %MON trcstat_ptracer17_min        =   5.2188594828187E-04
(PID.TID 0000.0001) %MON trcstat_ptracer17_mean       =   7.5509859534877E-02
(PID.TID 0000.0001) %MON trcstat_ptracer17_sd         =   1.2264336637825E-01
(PID.TID 0000.0001) %MON trcstat_ptracer17_del2       =   0.0000000000000E+00
(PID.TID 0000.0001) %MON trcstat_ptracer18_max        =   2.6413325835535E-05
(PID.TID 0000.0001) %MON trcstat_ptracer18_min        =   3.2617874852788E-08
(PID.TID 0000.0001) %MON trcstat_ptracer18_mean       =   4.7193661168348E-06
(PID.TID 0000.0001) %MON trcstat_ptracer18_sd         =   7.6652101864512E-06
(PID.TID 0000.0001) %MON trcstat_ptracer18_del2       =   0.0000000000000E+00
(PID.TID 0000.0001) %MON trcstat_ptracer19_max        =   1.7452688916178E-04
(PID.TID 0000.0001) %MON trcstat_ptracer19_min        =   1.4428327888541E-10
(PID.TID 0000.0001) %MON trcstat_ptracer19_mean       =   8.0055755438944E-05
(PID.TID 0000.0001) %MON trcstat_ptracer19_sd         =   6.8183896097961E-05
(PID.TID 0000.0001) %MON trcstat_ptracer19_del2       =   0.0000000000000E+00
(PID.TID 0000.0001) %MON trcstat_ptracer20_max        =   7.3594443831697E-01
(PID.TID 0000.0001) %MON trcstat_ptracer20_min        =   5.2213347753584E-06
(PID.TID 0000.0001) %MON trcstat_ptracer20_mean       =   2.1189904901731E-02
(PID.TID 0000.0001) %MON trcstat_ptracer20_sd         =   1.1521772885960E-01
(PID.TID 0000.0001) %MON trcstat_ptracer20_del2       =   0.0000000000000E+00
(PID.TID 0000.0001) %MON trcstat_ptracer21_max        =   3.3942076514918E-01
(PID.TID 0000.0001) %MON trcstat_ptracer21_min        =   1.1577706924623E-04
(PID.TID 0000.0001) %MON trcstat_ptracer21_mean       =   2.6444320683030E-02
(PID.TID 0000.0001) %MON trcstat_ptracer21_sd         =   6.3099499244481E-02
(PID.TID 0000.0001) %MON trcstat_ptracer21_del2       =   0.0000000000000E+00
(PID.TID 0000.0001) %MON trcstat_ptracer22_max        =   5.8514398147240E-06
(PID.TID 0000.0001) %MON trcstat_ptracer22_min        =   2.3202743389360E-64
(PID.TID 0000.0001) %MON trcstat_ptracer22_mean       =   1.7654716921056E-07
(PID.TID 0000.0001) %MON trcstat_ptracer22_sd         =   7.9347220274231E-07
(PID.TID 0000.0001) %MON trcstat_ptracer22_del2       =   0.0000000000000E+00
(PID.TID 0000.0001) %MON trcstat_ptracer23_max        =   5.7889067432227E-06
(PID.TID 0000.0001) %MON trcstat_ptracer23_min        =   9.4976440575770E-73
(PID.TID 0000.0001) %MON trcstat_ptracer23_mean       =   1.7283834878679E-07
(PID.TID 0000.0001) %MON trcstat_ptracer23_sd         =   7.6812467819244E-07
(PID.TID 0000.0001) %MON trcstat_ptracer23_del2       =   0.0000000000000E+00
(PID.TID 0000.0001) // =======================================================
(PID.TID 0000.0001) // End MONITOR ptracers field statistics
(PID.TID 0000.0001) // =======================================================
(PID.TID 0000.0001) %CHECKPOINT         4 ckptA
(PID.TID 0000.0001)   Seconds in section "ALL                    [THE_MODEL_MAIN]":
(PID.TID 0000.0001)           User time:  0.726890001
(PID.TID 0000.0001)         System time:  0.0379939997
(PID.TID 0000.0001)     Wall clock time:  0.765256882
(PID.TID 0000.0001)          No. starts: 1
(PID.TID 0000.0001)           No. stops: 1
(PID.TID 0000.0001)   Seconds in section "INITIALISE_FIXED       [THE_MODEL_MAIN]":
(PID.TID 0000.0001)           User time:  0.624905024
(PID.TID 0000.0001)         System time:  0.025996
(PID.TID 0000.0001)     Wall clock time:  0.651682854
(PID.TID 0000.0001)          No. starts: 1
(PID.TID 0000.0001)           No. stops: 1
(PID.TID 0000.0001)   Seconds in section "THE_MAIN_LOOP          [THE_MODEL_MAIN]":
(PID.TID 0000.0001)           User time:  0.100984991
(PID.TID 0000.0001)         System time:  0.0119979996
(PID.TID 0000.0001)     Wall clock time:  0.112897873
(PID.TID 0000.0001)          No. starts: 1
(PID.TID 0000.0001)           No. stops: 1
(PID.TID 0000.0001)   Seconds in section "INITIALISE_VARIA    [THE_MAIN_LOOP]":
(PID.TID 0000.0001)           User time:  0.030995965
(PID.TID 0000.0001)         System time:  0.00299899839
(PID.TID 0000.0001)     Wall clock time:  0.0336689949
(PID.TID 0000.0001)          No. starts: 1
(PID.TID 0000.0001)           No. stops: 1
(PID.TID 0000.0001)   Seconds in section "MAIN LOOP           [THE_MAIN_LOOP]":
(PID.TID 0000.0001)           User time:  0.0699890256
(PID.TID 0000.0001)         System time:  0.00899900123
(PID.TID 0000.0001)     Wall clock time:  0.0791828632
(PID.TID 0000.0001)          No. starts: 1
(PID.TID 0000.0001)           No. stops: 1
(PID.TID 0000.0001)   Seconds in section "FORWARD_STEP        [THE_MAIN_LOOP]":
(PID.TID 0000.0001)           User time:  0.0689890385
(PID.TID 0000.0001)         System time:  0.00899900123
(PID.TID 0000.0001)     Wall clock time:  0.0790960789
(PID.TID 0000.0001)          No. starts: 4
(PID.TID 0000.0001)           No. stops: 4
(PID.TID 0000.0001)   Seconds in section "LOAD_FIELDS_DRIVER  [FORWARD_STEP]":
(PID.TID 0000.0001)           User time:  0.
(PID.TID 0000.0001)         System time:  0.00100000203
(PID.TID 0000.0001)     Wall clock time:  0.00120711327
(PID.TID 0000.0001)          No. starts: 4
(PID.TID 0000.0001)           No. stops: 4
(PID.TID 0000.0001)   Seconds in section "EXTERNAL_FLDS_LOAD [LOAD_FLDS_DRIVER]":
(PID.TID 0000.0001)           User time:  0.
(PID.TID 0000.0001)         System time:  0.
(PID.TID 0000.0001)     Wall clock time:  0.000702857971
(PID.TID 0000.0001)          No. starts: 4
(PID.TID 0000.0001)           No. stops: 4
(PID.TID 0000.0001)   Seconds in section "DO_ATMOSPHERIC_PHYS [FORWARD_STEP]":
(PID.TID 0000.0001)           User time:  0.
(PID.TID 0000.0001)         System time:  0.
(PID.TID 0000.0001)     Wall clock time:  6.19888306E-05
(PID.TID 0000.0001)          No. starts: 4
(PID.TID 0000.0001)           No. stops: 4
(PID.TID 0000.0001)   Seconds in section "DO_OCEANIC_PHYS     [FORWARD_STEP]":
(PID.TID 0000.0001)           User time:  0.00299996138
(PID.TID 0000.0001)         System time:  0.000999998301
(PID.TID 0000.0001)     Wall clock time:  0.0042450428
(PID.TID 0000.0001)          No. starts: 4
(PID.TID 0000.0001)           No. stops: 4
(PID.TID 0000.0001)   Seconds in section "KPP_CALC [DO_OCEANIC_PHYS]":
(PID.TID 0000.0001)           User time:  0.00299996138
(PID.TID 0000.0001)         System time:  0.000999998301
(PID.TID 0000.0001)     Wall clock time:  0.00363588333
(PID.TID 0000.0001)          No. starts: 4
(PID.TID 0000.0001)           No. stops: 4
(PID.TID 0000.0001)   Seconds in section "GCHEM_CALC_TENDENCY [FORWARD_STEP]":
(PID.TID 0000.0001)           User time:  0.
(PID.TID 0000.0001)         System time:  0.
(PID.TID 0000.0001)     Wall clock time:  5.79357147E-05
(PID.TID 0000.0001)          No. starts: 4
(PID.TID 0000.0001)           No. stops: 4
(PID.TID 0000.0001)   Seconds in section "THERMODYNAMICS      [FORWARD_STEP]":
(PID.TID 0000.0001)           User time:  0.0199970007
(PID.TID 0000.0001)         System time:  0.
(PID.TID 0000.0001)     Wall clock time:  0.0212638378
(PID.TID 0000.0001)          No. starts: 4
(PID.TID 0000.0001)           No. stops: 4
(PID.TID 0000.0001)   Seconds in section "TRC_CORRECTION_STEP [FORWARD_STEP]":
(PID.TID 0000.0001)           User time:  0.
(PID.TID 0000.0001)         System time:  0.
(PID.TID 0000.0001)     Wall clock time:  0.000184059143
(PID.TID 0000.0001)          No. starts: 4
(PID.TID 0000.0001)           No. stops: 4
(PID.TID 0000.0001)   Seconds in section "GCHEM_FORCING_SEP  [FORWARD_STEP]":
(PID.TID 0000.0001)           User time:  0.00200009346
(PID.TID 0000.0001)         System time:  0.
(PID.TID 0000.0001)     Wall clock time:  0.000511646271
(PID.TID 0000.0001)          No. starts: 4
(PID.TID 0000.0001)           No. stops: 4
(PID.TID 0000.0001)   Seconds in section "BLOCKING_EXCHANGES  [FORWARD_STEP]":
(PID.TID 0000.0001)           User time:  0.00199896097
(PID.TID 0000.0001)         System time:  0.
(PID.TID 0000.0001)     Wall clock time:  0.00207448006
(PID.TID 0000.0001)          No. starts: 4
(PID.TID 0000.0001)           No. stops: 4
(PID.TID 0000.0001)   Seconds in section "DO_STATEVARS_TAVE   [FORWARD_STEP]":
(PID.TID 0000.0001)           User time:  0.
(PID.TID 0000.0001)         System time:  0.
(PID.TID 0000.0001)     Wall clock time:  0.000262975693
(PID.TID 0000.0001)          No. starts: 4
(PID.TID 0000.0001)           No. stops: 4
(PID.TID 0000.0001)   Seconds in section "MONITOR             [FORWARD_STEP]":
(PID.TID 0000.0001)           User time:  0.00400000811
(PID.TID 0000.0001)         System time:  0.
(PID.TID 0000.0001)     Wall clock time:  0.00462031364
(PID.TID 0000.0001)          No. starts: 4
(PID.TID 0000.0001)           No. stops: 4
(PID.TID 0000.0001)   Seconds in section "DO_THE_MODEL_IO     [FORWARD_STEP]":
(PID.TID 0000.0001)           User time:  0.0349929929
(PID.TID 0000.0001)         System time:  0.
(PID.TID 0000.0001)     Wall clock time:  0.0340759754
(PID.TID 0000.0001)          No. starts: 4
(PID.TID 0000.0001)           No. stops: 4
(PID.TID 0000.0001)   Seconds in section "DO_WRITE_PICKUP     [FORWARD_STEP]":
(PID.TID 0000.0001)           User time:  0.00300002098
(PID.TID 0000.0001)         System time:  0.00699900091
(PID.TID 0000.0001)     Wall clock time:  0.00972533226
(PID.TID 0000.0001)          No. starts: 4
(PID.TID 0000.0001)           No. stops: 4
(PID.TID 0000.0001) // ======================================================
(PID.TID 0000.0001) // Tile <-> Tile communication statistics
(PID.TID 0000.0001) // ======================================================
(PID.TID 0000.0001) // o Tile number: 000001
(PID.TID 0000.0001) //         No. X exchanges =              0
(PID.TID 0000.0001) //            Max. X spins =              0
(PID.TID 0000.0001) //            Min. X spins =     1000000000
(PID.TID 0000.0001) //          Total. X spins =              0
(PID.TID 0000.0001) //            Avg. X spins =       0.00E+00
(PID.TID 0000.0001) //         No. Y exchanges =              0
(PID.TID 0000.0001) //            Max. Y spins =              0
(PID.TID 0000.0001) //            Min. Y spins =     1000000000
(PID.TID 0000.0001) //          Total. Y spins =              0
(PID.TID 0000.0001) //            Avg. Y spins =       0.00E+00
(PID.TID 0000.0001) // o Thread number: 000001
(PID.TID 0000.0001) //            No. barriers =           9501
(PID.TID 0000.0001) //      Max. barrier spins =              1
(PID.TID 0000.0001) //      Min. barrier spins =              1
(PID.TID 0000.0001) //     Total barrier spins =           9501
(PID.TID 0000.0001) //      Avg. barrier spins =       1.00E+00
