(PID.TID 0000.0001) 
(PID.TID 0000.0001) // ======================================================
(PID.TID 0000.0001) //                      MITgcm UV
(PID.TID 0000.0001) //                      =========
(PID.TID 0000.0001) // ======================================================
(PID.TID 0000.0001) // execution environment starting up...
(PID.TID 0000.0001) 
(PID.TID 0000.0001) // MITgcmUV version:  checkpoint61
(PID.TID 0000.0001) // Build user:        jahn
(PID.TID 0000.0001) // Build host:        beagle.local
(PID.TID 0000.0001) // Build date:        Fri Aug 22 14:06:40 EDT 2008
(PID.TID 0000.0001) 
(PID.TID 0000.0001) // =======================================================
(PID.TID 0000.0001) // Execution Environment parameter file "eedata"
(PID.TID 0000.0001) // =======================================================
(PID.TID 0000.0001) ># Example "eedata" file
(PID.TID 0000.0001) ># Lines beginning "#" are comments
(PID.TID 0000.0001) ># nTx - No. threads per process in X
(PID.TID 0000.0001) ># nTy - No. threads per process in Y
(PID.TID 0000.0001) > &EEPARMS
(PID.TID 0000.0001) > nTx=1,nTy=1
(PID.TID 0000.0001) > /
(PID.TID 0000.0001) ># Note: Some systems use & as the
(PID.TID 0000.0001) ># namelist terminator. Other systems
(PID.TID 0000.0001) ># use a / character (as shown here).
(PID.TID 0000.0001) 
(PID.TID 0000.0001) // =======================================================
(PID.TID 0000.0001) // Computational Grid Specification ( see files "SIZE.h" )
(PID.TID 0000.0001) //                                  ( and "eedata"       )
(PID.TID 0000.0001) // =======================================================
(PID.TID 0000.0001)      nPx =    1 ; /* No. processes in X */
(PID.TID 0000.0001)      nPy =    1 ; /* No. processes in Y */
(PID.TID 0000.0001)      nSx =    1 ; /* No. tiles in X per process */
(PID.TID 0000.0001)      nSy =    1 ; /* No. tiles in Y per process */
(PID.TID 0000.0001)      sNx =    1 ; /* Tile size in X */
(PID.TID 0000.0001)      sNy =    1 ; /* Tile size in Y */
(PID.TID 0000.0001)      OLx =    2 ; /* Tile overlap distance in X */
(PID.TID 0000.0001)      OLy =    2 ; /* Tile overlap distance in Y */
(PID.TID 0000.0001)      nTx =    1 ; /* No. threads in X per process */
(PID.TID 0000.0001)      nTy =    1 ; /* No. threads in Y per process */
(PID.TID 0000.0001)       Nr =   35 ; /* No. levels in the vertical   */
(PID.TID 0000.0001)       nX =    1 ; /* Total domain size in X ( = nPx*nSx*sNx ) */
(PID.TID 0000.0001)       nY =    1 ; /* Total domain size in Y ( = nPy*nSy*sNy ) */
(PID.TID 0000.0001)   nTiles =    1 ; /* Total no. tiles per process ( = nSx*nSy ) */
(PID.TID 0000.0001)   nProcs =    1 ; /* Total no. processes ( = nPx*nPy ) */
(PID.TID 0000.0001) nThreads =    1 ; /* Total no. threads per process ( = nTx*nTy ) */
(PID.TID 0000.0001) usingMPI =    F ; /* Flag used to control whether MPI is in use */
(PID.TID 0000.0001)                   /*  note: To execute a program with MPI calls */
(PID.TID 0000.0001)                   /*  it must be launched appropriately e.g     */
(PID.TID 0000.0001)                   /*  "mpirun -np 64 ......"                    */
(PID.TID 0000.0001) useCoupler=   F ; /* Flag used to control communications with */
(PID.TID 0000.0001)                   /*  other model components, through a coupler */
(PID.TID 0000.0001) 
(PID.TID 0000.0001) // ======================================================
(PID.TID 0000.0001) // Mapping of tiles to threads
(PID.TID 0000.0001) // ======================================================
(PID.TID 0000.0001) // -o- Thread   1, tiles (   1:   1,   1:   1)
(PID.TID 0000.0001) 
(PID.TID 0000.0001) // ======================================================
(PID.TID 0000.0001) // Tile <-> Tile connectvity table
(PID.TID 0000.0001) // ======================================================
(PID.TID 0000.0001) // Tile number: 000001 (process no. = 000001)
(PID.TID 0000.0001) //        WEST: Tile = 000001, Process = 000001, Comm = put
(PID.TID 0000.0001) //                bi = 000001, bj = 000001
(PID.TID 0000.0001) //        EAST: Tile = 000001, Process = 000001, Comm = put
(PID.TID 0000.0001) //                bi = 000001, bj = 000001
(PID.TID 0000.0001) //       SOUTH: Tile = 000001, Process = 000001, Comm = put
(PID.TID 0000.0001) //                bi = 000001, bj = 000001
(PID.TID 0000.0001) //       NORTH: Tile = 000001, Process = 000001, Comm = put
(PID.TID 0000.0001) //                bi = 000001, bj = 000001
(PID.TID 0000.0001) 
(PID.TID 0000.0001) // =======================================================
(PID.TID 0000.0001) // Model parameter file "data"
(PID.TID 0000.0001) // =======================================================
(PID.TID 0000.0001) >#
(PID.TID 0000.0001) ># ******************************
(PID.TID 0000.0001) ># Model parameters
(PID.TID 0000.0001) ># Continuous equation parameters
(PID.TID 0000.0001) ># ******************************
(PID.TID 0000.0001) >&PARM01
(PID.TID 0000.0001) >tRef= 26.5, 26.1, 26., 25.5, 25.4, 24.9, 24.5, 24.0, 23.7,
(PID.TID 0000.0001) >      23.3, 23.1, 22.8, 22.5, 22.1, 21.6, 20.6, 19.5, 18.4,
(PID.TID 0000.0001) >      17.3, 16.6, 15.5, 14.6, 13.8, 13.1, 11.6, 10.1, 7.7,
(PID.TID 0000.0001) >      5.3, 4.1, 3.7, 3.7, 3.4, 3.0, 2.8, 2.6,
(PID.TID 0000.0001) >sRef= 35*35.00,
(PID.TID 0000.0001) >no_slip_sides=.false.,
(PID.TID 0000.0001) >no_slip_bottom=.TRUE.,
(PID.TID 0000.0001) >viscAz=0.e0,
(PID.TID 0000.0001) >viscAh=0.e0,
(PID.TID 0000.0001) >diffKhT=1.E2,
(PID.TID 0000.0001) >diffKzT=1.E-4,
(PID.TID 0000.0001) >diffKhS=0.D0,
(PID.TID 0000.0001) >diffKzS=0.D0,
(PID.TID 0000.0001) >beta=1.E-11,
(PID.TID 0000.0001) >tAlpha=2.E-4,
(PID.TID 0000.0001) >sBeta =7.4E-4,
(PID.TID 0000.0001) >gravity=9.81,
(PID.TID 0000.0001) >gBaro=9.81,
(PID.TID 0000.0001) >rigidLid=.TRUE.,
(PID.TID 0000.0001) >implicitFreeSurface=.false.,
(PID.TID 0000.0001) >eosType='JMD95Z',
(PID.TID 0000.0001) >saltStepping=.FALSE.,
(PID.TID 0000.0001) >tempStepping=.TRUE.,
(PID.TID 0000.0001) >tempAdvection=.TRUE.,
(PID.TID 0000.0001) >momStepping=.FALSE.,
(PID.TID 0000.0001) >implicitDiffusion=.true.,
(PID.TID 0000.0001) >implicitViscosity=.false.,
(PID.TID 0000.0001) >allowFreezing=.false.,
(PID.TID 0000.0001) >useSingleCpuIO=.TRUE.,
(PID.TID 0000.0001) >useCDscheme=.FALSE.,
(PID.TID 0000.0001) >tempAdvScheme = 3,
(PID.TID 0000.0001) >saltAdvScheme = 3,
(PID.TID 0000.0001) >/
(PID.TID 0000.0001) >
(PID.TID 0000.0001) ># **************************
(PID.TID 0000.0001) ># Elliptic solver parameters
(PID.TID 0000.0001) ># **************************
(PID.TID 0000.0001) >&PARM02
(PID.TID 0000.0001) >cg2dMaxIters=300,
(PID.TID 0000.0001) >cg2dTargetResidual=1.E-7,
(PID.TID 0000.0001) >/
(PID.TID 0000.0001) >
(PID.TID 0000.0001) ># ************************
(PID.TID 0000.0001) ># Time stepping parameters
(PID.TID 0000.0001) ># ************************
(PID.TID 0000.0001) >&PARM03
(PID.TID 0000.0001) > nIter0=0,
(PID.TID 0000.0001) >#nTimeSteps=86400,
(PID.TID 0000.0001) > nTimeSteps=4,
(PID.TID 0000.0001) > deltaTmom= 3600.,
(PID.TID 0000.0001) > deltaTtracer= 3600.,
(PID.TID 0000.0001) > deltaTClock = 3600.,
(PID.TID 0000.0001) > cAdjFreq    = -1.,
(PID.TID 0000.0001) > abEps=0.1,
(PID.TID 0000.0001) > pChkptFreq  = 31104000.0,
(PID.TID 0000.0001) > chkptFreq   = 31104000.0,
(PID.TID 0000.0001) > dumpFreq    = 31104000.0,
(PID.TID 0000.0001) > taveFreq    = 2592000.,
(PID.TID 0000.0001) >#monitorFreq = 2592000.,
(PID.TID 0000.0001) > monitorFreq = 1.,
(PID.TID 0000.0001) > tauThetaClimRelax=259200.,
(PID.TID 0000.0001) > tauSaltClimRelax=0.,
(PID.TID 0000.0001) > periodicExternalForcing=.TRUE.,
(PID.TID 0000.0001) > externForcingPeriod=2592000.,
(PID.TID 0000.0001) > externForcingCycle=31104000.,
(PID.TID 0000.0001) >/
(PID.TID 0000.0001) >
(PID.TID 0000.0001) ># *******************
(PID.TID 0000.0001) ># Gridding parameters
(PID.TID 0000.0001) ># *******************
(PID.TID 0000.0001) >&PARM04
(PID.TID 0000.0001) >usingCartesianGrid=.FALSE.,
(PID.TID 0000.0001) >usingSphericalPolarGrid=.TRUE.,
(PID.TID 0000.0001) >delX=1*1.E0,
(PID.TID 0000.0001) >delY=1*1.E0,
(PID.TID 0000.0001) >delZ=14*10, 5*15, 4*20, 2*50, 100, 2*150, 200, 300, 3*400, 2*500,
(PID.TID 0000.0001) >phimin=-18.,
(PID.TID 0000.0001) >thetamin=335,
(PID.TID 0000.0001) >/
(PID.TID 0000.0001) >
(PID.TID 0000.0001) ># **********
(PID.TID 0000.0001) ># Data Files
(PID.TID 0000.0001) ># **********
(PID.TID 0000.0001) >&PARM05
(PID.TID 0000.0001) >bathyFile=       '../input/input/bathyneg.bin',
(PID.TID 0000.0001) >hydrogThetaFile= '../input/input/loc1_temp_janprof.bin',
(PID.TID 0000.0001) >hydrogSaltFile=  '../input/input/salt_uniform.bin',
(PID.TID 0000.0001) >zonalWindFile=   '',
(PID.TID 0000.0001) >meridWindFile=   '',
(PID.TID 0000.0001) >thetaClimFile=   '../input/input/loc1_temp_monsurf.bin',
(PID.TID 0000.0001) >saltClimFile=    '',
(PID.TID 0000.0001) >surfQFile=       '',
(PID.TID 0000.0001) >EmPmRFile=       '',
(PID.TID 0000.0001) >/
(PID.TID 0000.0001) 
(PID.TID 0000.0001) S/R INI_PARMS ; starts to read PARM01
(PID.TID 0000.0001) S/R INI_PARMS ; read PARM01 : OK
(PID.TID 0000.0001) S/R INI_PARMS ; starts to read PARM02
(PID.TID 0000.0001) S/R INI_PARMS ; read PARM02 : OK
(PID.TID 0000.0001) S/R INI_PARMS ; starts to read PARM03
(PID.TID 0000.0001) S/R INI_PARMS ; read PARM03 : OK
(PID.TID 0000.0001) S/R INI_PARMS ; starts to read PARM04
(PID.TID 0000.0001) S/R INI_PARMS ; read PARM04 : OK
(PID.TID 0000.0001) S/R INI_PARMS ; starts to read PARM05
(PID.TID 0000.0001) S/R INI_PARMS ; read PARM05 : OK
(PID.TID 0000.0001)  PACKAGES_BOOT: opening data.pkg
(PID.TID 0000.0001)  OPEN_COPY_DATA_FILE: opening file data.pkg
(PID.TID 0000.0001) // =======================================================
(PID.TID 0000.0001) // Parameter file "data.pkg"
(PID.TID 0000.0001) // =======================================================
(PID.TID 0000.0001) ># Packages
(PID.TID 0000.0001) > &PACKAGES
(PID.TID 0000.0001) > usePTRACERS=.TRUE.
(PID.TID 0000.0001) > useGCHEM=.TRUE.,
(PID.TID 0000.0001) > useKPP=.FALSE.,
(PID.TID 0000.0001) > useMNC=.TRUE.,
(PID.TID 0000.0001) > /
(PID.TID 0000.0001) 
(PID.TID 0000.0001)  PACKAGES_BOOT: finished reading data.pkg
(PID.TID 0000.0001)  MNC_READPARMS: opening file 'data.mnc'
(PID.TID 0000.0001)  OPEN_COPY_DATA_FILE: opening file data.mnc
(PID.TID 0000.0001) // =======================================================
(PID.TID 0000.0001) // Parameter file "data.mnc"
(PID.TID 0000.0001) // =======================================================
(PID.TID 0000.0001) ># Example "data.mnc" file
(PID.TID 0000.0001) ># Lines beginning "#" are comments
(PID.TID 0000.0001) > &MNC_01
(PID.TID 0000.0001) ># mnc_echo_gvtypes=.FALSE.,
(PID.TID 0000.0001) ># mnc_use_indir=.FALSE.,
(PID.TID 0000.0001) > mnc_use_outdir=.TRUE.,
(PID.TID 0000.0001) > mnc_outdir_str='dar1d_',
(PID.TID 0000.0001) > mnc_outdir_date=.TRUE.,
(PID.TID 0000.0001) > monitor_mnc=.FALSE.,
(PID.TID 0000.0001) > snapshot_mnc=.TRUE.,
(PID.TID 0000.0001) > timeave_mnc=.TRUE.,
(PID.TID 0000.0001) > pickup_read_mnc=.FALSE.,
(PID.TID 0000.0001) > pickup_write_mnc=.FALSE.,
(PID.TID 0000.0001) > &
(PID.TID 0000.0001) ># Note: Some systems use & as the
(PID.TID 0000.0001) ># namelist terminator. Other systems
(PID.TID 0000.0001) ># use a / character.
(PID.TID 0000.0001) 
(PID.TID 0000.0001)  MNC_READPARMS: finished reading data.mnc
(PID.TID 0000.0001)  PTRACERS_READPARMS: opening data.ptracers
(PID.TID 0000.0001)  OPEN_COPY_DATA_FILE: opening file data.ptracers
(PID.TID 0000.0001) // =======================================================
(PID.TID 0000.0001) // Parameter file "data.ptracers"
(PID.TID 0000.0001) // =======================================================
(PID.TID 0000.0001) > &PTRACERS_PARM01
(PID.TID 0000.0001) > PTRACERS_numInUse=99,
(PID.TID 0000.0001) > PTRACERS_Iter0= 0,
(PID.TID 0000.0001) ># tracer 1 - phosphate
(PID.TID 0000.0001) > PTRACERS_names(1)='PO4',
(PID.TID 0000.0001) > PTRACERS_units(1)='mmol P/m^3',
(PID.TID 0000.0001) > PTRACERS_advScheme(1)=33,
(PID.TID 0000.0001) > PTRACERS_diffKh(1)=0.E3,
(PID.TID 0000.0001) > PTRACERS_diffKr(1)=1.E-5,
(PID.TID 0000.0001) > PTRACERS_useGMRedi(1)=.FALSE. ,
(PID.TID 0000.0001) > PTRACERS_useKPP(1)=.FALSE. ,
(PID.TID 0000.0001) > PTRACERS_initialFile(1)='../input/input/loc1_phos_janprof.bin',
(PID.TID 0000.0001) ># tracer 2 - nitrate
(PID.TID 0000.0001) > PTRACERS_names(2)='NO3',
(PID.TID 0000.0001) > PTRACERS_units(2)='mmol N/m^3',
(PID.TID 0000.0001) > PTRACERS_advScheme(2)=33,
(PID.TID 0000.0001) > PTRACERS_diffKh(2)=0.E3,
(PID.TID 0000.0001) > PTRACERS_diffKr(2)=1.E-5,
(PID.TID 0000.0001) > PTRACERS_useGMRedi(2)=.FALSE. ,
(PID.TID 0000.0001) > PTRACERS_useKPP(2)=.FALSE. ,
(PID.TID 0000.0001) > PTRACERS_initialFile(2)='../input/input/loc1_nitr_janprof.bin',
(PID.TID 0000.0001) ># tracer 3 - dissolved iron
(PID.TID 0000.0001) > PTRACERS_names(3)='FeT',
(PID.TID 0000.0001) > PTRACERS_units(3)='mmol Fe/m^3',
(PID.TID 0000.0001) > PTRACERS_advScheme(3)=33,
(PID.TID 0000.0001) > PTRACERS_diffKh(3)=0.E3,
(PID.TID 0000.0001) > PTRACERS_diffKr(3)=1.E-5,
(PID.TID 0000.0001) > PTRACERS_useGMRedi(3)=.FALSE. ,
(PID.TID 0000.0001) > PTRACERS_useKPP(3)=.FALSE. ,
(PID.TID 0000.0001) >#PTRACERS_initialFile(3)='../input/input/loc1_FeT_run83_janprof.bin',
(PID.TID 0000.0001) > PTRACERS_initialFile(3)='../input/input/fet_uniform.bin',
(PID.TID 0000.0001) ># tracer 4 - silicic acid
(PID.TID 0000.0001) > PTRACERS_names(4)='SiO2',
(PID.TID 0000.0001) > PTRACERS_units(4)='mmol Si/m^3',
(PID.TID 0000.0001) > PTRACERS_advScheme(4)=33,
(PID.TID 0000.0001) > PTRACERS_diffKh(4)=0.E3,
(PID.TID 0000.0001) > PTRACERS_diffKr(4)=1.E-5,
(PID.TID 0000.0001) > PTRACERS_useGMRedi(4)=.FALSE. ,
(PID.TID 0000.0001) > PTRACERS_useKPP(4)=.FALSE. ,
(PID.TID 0000.0001) > PTRACERS_initialFile(4)='../input/input/loc1_sil_janprof.bin',
(PID.TID 0000.0001) ># tracer 5 - DOP
(PID.TID 0000.0001) > PTRACERS_names(5)='DOP',
(PID.TID 0000.0001) > PTRACERS_units(5)='mmol P/m^3',
(PID.TID 0000.0001) > PTRACERS_advScheme(5)=33,
(PID.TID 0000.0001) > PTRACERS_diffKh(5)=0.E3,
(PID.TID 0000.0001) > PTRACERS_diffKr(5)=1.E-5,
(PID.TID 0000.0001) > PTRACERS_useGMRedi(5)=.FALSE. ,
(PID.TID 0000.0001) > PTRACERS_useKPP(5)=.FALSE.  ,
(PID.TID 0000.0001) > PTRACERS_initialFile(5)='../input/input/loc1_DOP_run83_janprof.bin',
(PID.TID 0000.0001) ># tracer 6 - DON
(PID.TID 0000.0001) > PTRACERS_names(6)='DON',
(PID.TID 0000.0001) > PTRACERS_units(6)='mmol N/m^3',
(PID.TID 0000.0001) > PTRACERS_advScheme(6)=33,
(PID.TID 0000.0001) > PTRACERS_diffKh(6)=0.E3,
(PID.TID 0000.0001) > PTRACERS_diffKr(6)=1.E-5,
(PID.TID 0000.0001) > PTRACERS_useGMRedi(6)=.FALSE. ,
(PID.TID 0000.0001) > PTRACERS_useKPP(6)=.FALSE.  ,
(PID.TID 0000.0001) > PTRACERS_initialFile(6)='../input/input/loc1_DON_run83_janprof.bin',
(PID.TID 0000.0001) ># tracer 7 - DOFe
(PID.TID 0000.0001) > PTRACERS_names(7)='DOFe',
(PID.TID 0000.0001) > PTRACERS_units(7)='mmol Fe/m^3',
(PID.TID 0000.0001) > PTRACERS_advScheme(7)=33,
(PID.TID 0000.0001) > PTRACERS_diffKh(7)=0.E3,
(PID.TID 0000.0001) > PTRACERS_diffKr(7)=1.E-5,
(PID.TID 0000.0001) > PTRACERS_useGMRedi(7)=.FALSE. ,
(PID.TID 0000.0001) > PTRACERS_useKPP(7)=.FALSE.  ,
(PID.TID 0000.0001) > PTRACERS_initialFile(7)='../input/input/loc1_DOFe_run83_janprof.bin',
(PID.TID 0000.0001) ># tracer 8 - ZOO1P
(PID.TID 0000.0001) > PTRACERS_names(8)='ZOO1P',
(PID.TID 0000.0001) > PTRACERS_units(8)='mmol P/m^3',
(PID.TID 0000.0001) > PTRACERS_advScheme(8)=33,
(PID.TID 0000.0001) > PTRACERS_diffKh(8)=0.E3,
(PID.TID 0000.0001) > PTRACERS_diffKr(8)=1.E-5,
(PID.TID 0000.0001) > PTRACERS_useGMRedi(8)=.FALSE. ,
(PID.TID 0000.0001) > PTRACERS_useKPP(8)=.FALSE.  ,
(PID.TID 0000.0001) > PTRACERS_initialFile(8)='../input/input/loc1_ZOOP_run83_janprof.bin',
(PID.TID 0000.0001) ># tracer 9 - ZOO1N
(PID.TID 0000.0001) > PTRACERS_names(9)='ZOO1N',
(PID.TID 0000.0001) > PTRACERS_units(9)='mmol N/m^3'
(PID.TID 0000.0001) > PTRACERS_advScheme(9)=33,
(PID.TID 0000.0001) > PTRACERS_diffKh(9)=0.E3,
(PID.TID 0000.0001) > PTRACERS_diffKr(9)=1.E-5,
(PID.TID 0000.0001) > PTRACERS_useGMRedi(9)=.FALSE. ,
(PID.TID 0000.0001) > PTRACERS_useKPP(9)=.FALSE.  ,
(PID.TID 0000.0001) > PTRACERS_initialFile(9)='../input/input/loc1_ZOON_run83_janprof.bin',
(PID.TID 0000.0001) ># tracer 10 - ZOO1Fe
(PID.TID 0000.0001) > PTRACERS_names(10)='ZOO1Fe',
(PID.TID 0000.0001) > PTRACERS_units(10)='mmol Fe/m^3'
(PID.TID 0000.0001) > PTRACERS_advScheme(10)=33,
(PID.TID 0000.0001) > PTRACERS_diffKh(10)=0.E3,
(PID.TID 0000.0001) > PTRACERS_diffKr(10)=1.E-5,
(PID.TID 0000.0001) > PTRACERS_useGMRedi(10)=.FALSE. ,
(PID.TID 0000.0001) > PTRACERS_useKPP(10)=.FALSE.  ,
(PID.TID 0000.0001) > PTRACERS_initialFile(10)='../input/input/loc1_ZOOFe_run83_janprof.bin',
(PID.TID 0000.0001) ># tracer 11 - ZOO1Si
(PID.TID 0000.0001) > PTRACERS_names(11)='ZOO1Si',
(PID.TID 0000.0001) > PTRACERS_units(11)='mmol Si/m^3'
(PID.TID 0000.0001) > PTRACERS_advScheme(11)=33,
(PID.TID 0000.0001) > PTRACERS_diffKh(11)=0.E3,
(PID.TID 0000.0001) > PTRACERS_diffKr(11)=1.E-5,
(PID.TID 0000.0001) > PTRACERS_useGMRedi(11)=.FALSE. ,
(PID.TID 0000.0001) > PTRACERS_useKPP(11)=.FALSE.  ,
(PID.TID 0000.0001) > PTRACERS_initialFile(11)='../input/input/loc1_ZOOSi_run83_janprof.bin',
(PID.TID 0000.0001) ># tracer 12 - ZOO2P
(PID.TID 0000.0001) > PTRACERS_names(12)='ZOO2P',
(PID.TID 0000.0001) > PTRACERS_units(12)='mmol P/m^3',
(PID.TID 0000.0001) > PTRACERS_advScheme(12)=33,
(PID.TID 0000.0001) > PTRACERS_diffKh(12)=0.E3,
(PID.TID 0000.0001) > PTRACERS_diffKr(12)=1.E-5,
(PID.TID 0000.0001) > PTRACERS_useGMRedi(12)=.FALSE. ,
(PID.TID 0000.0001) > PTRACERS_useKPP(12)=.FALSE.  ,
(PID.TID 0000.0001) > PTRACERS_initialFile(12)='../input/input/loc1_ZOOP_run83_janprof.bin',
(PID.TID 0000.0001) ># tracer 13 - ZOO2N
(PID.TID 0000.0001) > PTRACERS_names(13)='ZOO2N',
(PID.TID 0000.0001) > PTRACERS_units(13)='mmol N/m^3'
(PID.TID 0000.0001) > PTRACERS_advScheme(13)=33,
(PID.TID 0000.0001) > PTRACERS_diffKh(13)=0.E3,
(PID.TID 0000.0001) > PTRACERS_diffKr(13)=1.E-5,
(PID.TID 0000.0001) > PTRACERS_useGMRedi(13)=.FALSE. ,
(PID.TID 0000.0001) > PTRACERS_useKPP(13)=.FALSE.  ,
(PID.TID 0000.0001) > PTRACERS_initialFile(13)='../input/input/loc1_ZOON_run83_janprof.bin',
(PID.TID 0000.0001) ># tracer 14 - ZOO2Fe
(PID.TID 0000.0001) > PTRACERS_names(14)='ZOO2Fe',
(PID.TID 0000.0001) > PTRACERS_units(14)='mmol Fe/m^3'
(PID.TID 0000.0001) > PTRACERS_advScheme(14)=33,
(PID.TID 0000.0001) > PTRACERS_diffKh(14)=0.E3,
(PID.TID 0000.0001) > PTRACERS_diffKr(14)=1.E-5,
(PID.TID 0000.0001) > PTRACERS_useGMRedi(14)=.FALSE. ,
(PID.TID 0000.0001) > PTRACERS_useKPP(14)=.FALSE.  ,
(PID.TID 0000.0001) > PTRACERS_initialFile(14)='../input/input/loc1_ZOOFe_run83_janprof.bin',
(PID.TID 0000.0001) ># tracer 15 - ZOO2Si
(PID.TID 0000.0001) > PTRACERS_names(15)='ZOO2Si',
(PID.TID 0000.0001) > PTRACERS_units(15)='mmol Si/m^3'
(PID.TID 0000.0001) > PTRACERS_advScheme(15)=33,
(PID.TID 0000.0001) > PTRACERS_diffKh(15)=0.E3,
(PID.TID 0000.0001) > PTRACERS_diffKr(15)=1.E-5,
(PID.TID 0000.0001) > PTRACERS_useGMRedi(15)=.FALSE. ,
(PID.TID 0000.0001) > PTRACERS_useKPP(15)=.FALSE.  ,
(PID.TID 0000.0001) > PTRACERS_initialFile(15)='../input/input/loc1_ZOOSi_run83_janprof.bin',
(PID.TID 0000.0001) ># tracer 16 - POP
(PID.TID 0000.0001) > PTRACERS_names(16)='POP',
(PID.TID 0000.0001) > PTRACERS_units(16)='mmol P/m^3',
(PID.TID 0000.0001) > PTRACERS_advScheme(16)=33,
(PID.TID 0000.0001) > PTRACERS_diffKh(16)=0.E3,
(PID.TID 0000.0001) > PTRACERS_diffKr(16)=1.E-5,
(PID.TID 0000.0001) > PTRACERS_useGMRedi(16)=.FALSE. ,
(PID.TID 0000.0001) > PTRACERS_useKPP(16)=.FALSE.  ,
(PID.TID 0000.0001) > PTRACERS_initialFile(16)='../input/input/loc1_POP_run83_janprof.bin',
(PID.TID 0000.0001) ># tracer 17 - PON
(PID.TID 0000.0001) > PTRACERS_names(17)='PON',
(PID.TID 0000.0001) > PTRACERS_units(17)='mmol N/m^3',
(PID.TID 0000.0001) > PTRACERS_advScheme(17)=33,
(PID.TID 0000.0001) > PTRACERS_diffKh(17)=0.E3,
(PID.TID 0000.0001) > PTRACERS_diffKr(17)=1.E-5,
(PID.TID 0000.0001) > PTRACERS_useGMRedi(17)=.FALSE. ,
(PID.TID 0000.0001) > PTRACERS_useKPP(17)=.FALSE.  ,
(PID.TID 0000.0001) > PTRACERS_initialFile(17)='../input/input/loc1_PON_run83_janprof.bin',
(PID.TID 0000.0001) ># tracer 18 - POFe
(PID.TID 0000.0001) > PTRACERS_names(18)='POFe',
(PID.TID 0000.0001) > PTRACERS_units(18)='mmol Fe/m^3'
(PID.TID 0000.0001) > PTRACERS_advScheme(18)=33,
(PID.TID 0000.0001) > PTRACERS_diffKh(18)=0.E3,
(PID.TID 0000.0001) > PTRACERS_diffKr(18)=1.E-5,
(PID.TID 0000.0001) > PTRACERS_useGMRedi(18)=.FALSE. ,
(PID.TID 0000.0001) > PTRACERS_useKPP(18)=.FALSE.  ,
(PID.TID 0000.0001) > PTRACERS_initialFile(18)='../input/input/loc1_POFe_run83_janprof.bin',
(PID.TID 0000.0001) ># tracer 19 - POSi
(PID.TID 0000.0001) > PTRACERS_names(19)='POSi',
(PID.TID 0000.0001) > PTRACERS_units(19)='mmol Si/m^3'
(PID.TID 0000.0001) > PTRACERS_advScheme(19)=33,
(PID.TID 0000.0001) > PTRACERS_diffKh(19)=0.E3,
(PID.TID 0000.0001) > PTRACERS_diffKr(19)=1.E-5,
(PID.TID 0000.0001) > PTRACERS_useGMRedi(19)=.FALSE. ,
(PID.TID 0000.0001) > PTRACERS_useKPP(19)=.FALSE.  ,
(PID.TID 0000.0001) > PTRACERS_initialFile(19)='../input/input/loc1_POSi_run83_janprof.bin',
(PID.TID 0000.0001) ># tracer 20 - NH4
(PID.TID 0000.0001) > PTRACERS_names(20)='NH4',
(PID.TID 0000.0001) > PTRACERS_units(20)='mmol N/m^3'
(PID.TID 0000.0001) > PTRACERS_advScheme(20)=33,
(PID.TID 0000.0001) > PTRACERS_diffKh(20)=0.E3,
(PID.TID 0000.0001) > PTRACERS_diffKr(20)=1.E-5,
(PID.TID 0000.0001) > PTRACERS_useGMRedi(20)=.FALSE. ,
(PID.TID 0000.0001) > PTRACERS_useKPP(20)=.FALSE.  ,
(PID.TID 0000.0001) > PTRACERS_initialFile(20)='../input/input/loc1_NH4_run83_janprof.bin',
(PID.TID 0000.0001) ># tracer 21 - NO2
(PID.TID 0000.0001) > PTRACERS_names(21)='NO2',
(PID.TID 0000.0001) > PTRACERS_units(21)='mmol N/m^3'
(PID.TID 0000.0001) > PTRACERS_advScheme(21)=33,
(PID.TID 0000.0001) > PTRACERS_diffKh(21)=0.E3,
(PID.TID 0000.0001) > PTRACERS_diffKr(21)=1.E-5,
(PID.TID 0000.0001) > PTRACERS_useGMRedi(21)=.FALSE. ,
(PID.TID 0000.0001) > PTRACERS_useKPP(21)=.FALSE.  ,
(PID.TID 0000.0001) > PTRACERS_initialFile(21)='../input/input/loc1_NO2_run83_janprof.bin',
(PID.TID 0000.0001) ># tracer 22 - PHYT01
(PID.TID 0000.0001) > PTRACERS_names(22)='Phy1',
(PID.TID 0000.0001) > PTRACERS_units(22)='mmol P/m^3'
(PID.TID 0000.0001) > PTRACERS_advScheme(22)=33,
(PID.TID 0000.0001) > PTRACERS_diffKh(22)=0.E3,
(PID.TID 0000.0001) > PTRACERS_diffKr(22)=1.E-5,
(PID.TID 0000.0001) > PTRACERS_useGMRedi(22)=.FALSE. ,
(PID.TID 0000.0001) > PTRACERS_useKPP(22)=.FALSE.  ,
(PID.TID 0000.0001) > PTRACERS_initialFile(22)='../input/input/loc1_biomass_run83_janprof.bin',
(PID.TID 0000.0001) ># tracer 23 - PHYT02
(PID.TID 0000.0001) > PTRACERS_names(23)='Phy2',
(PID.TID 0000.0001) > PTRACERS_units(23)='mmol P/m^3'
(PID.TID 0000.0001) > PTRACERS_advScheme(23)=33,
(PID.TID 0000.0001) > PTRACERS_diffKh(23)=0.E3,
(PID.TID 0000.0001) > PTRACERS_diffKr(23)=1.E-5,
(PID.TID 0000.0001) > PTRACERS_useGMRedi(23)=.FALSE. ,
(PID.TID 0000.0001) > PTRACERS_useKPP(23)=.FALSE.  ,
(PID.TID 0000.0001) > PTRACERS_initialFile(23)='../input/input/loc1_biomass_run83_janprof.bin',
(PID.TID 0000.0001) ># tracer 24 - PHYT03
(PID.TID 0000.0001) > PTRACERS_names(24)='Phy3',
(PID.TID 0000.0001) > PTRACERS_units(24)='mmol P/m^3'
(PID.TID 0000.0001) > PTRACERS_advScheme(24)=33,
(PID.TID 0000.0001) > PTRACERS_diffKh(24)=0.E3,
(PID.TID 0000.0001) > PTRACERS_diffKr(24)=1.E-5,
(PID.TID 0000.0001) > PTRACERS_useGMRedi(24)=.FALSE. ,
(PID.TID 0000.0001) > PTRACERS_useKPP(24)=.FALSE.  ,
(PID.TID 0000.0001) > PTRACERS_initialFile(24)='../input/input/loc1_biomass_run83_janprof.bin',
(PID.TID 0000.0001) ># tracer 25 - PHYT04
(PID.TID 0000.0001) > PTRACERS_names(25)='Phy4',
(PID.TID 0000.0001) > PTRACERS_units(25)='mmol P/m^3'
(PID.TID 0000.0001) > PTRACERS_advScheme(25)=33,
(PID.TID 0000.0001) > PTRACERS_diffKh(25)=0.E3,
(PID.TID 0000.0001) > PTRACERS_diffKr(25)=1.E-5,
(PID.TID 0000.0001) > PTRACERS_useGMRedi(25)=.FALSE. ,
(PID.TID 0000.0001) > PTRACERS_useKPP(25)=.FALSE.  ,
(PID.TID 0000.0001) > PTRACERS_initialFile(25)='../input/input/loc1_biomass_run83_janprof.bin',
(PID.TID 0000.0001) ># tracer 26 - PHYT05
(PID.TID 0000.0001) > PTRACERS_names(26)='Phy5',
(PID.TID 0000.0001) > PTRACERS_units(26)='mmol P/m^3'
(PID.TID 0000.0001) > PTRACERS_advScheme(26)=33,
(PID.TID 0000.0001) > PTRACERS_diffKh(26)=0.E3,
(PID.TID 0000.0001) > PTRACERS_diffKr(26)=1.E-5,
(PID.TID 0000.0001) > PTRACERS_useGMRedi(26)=.FALSE. ,
(PID.TID 0000.0001) > PTRACERS_useKPP(26)=.FALSE.  ,
(PID.TID 0000.0001) > PTRACERS_initialFile(26)='../input/input/loc1_biomass_run83_janprof.bin',
(PID.TID 0000.0001) ># tracer 27 - PHYT06
(PID.TID 0000.0001) > PTRACERS_names(27)='Phy6',
(PID.TID 0000.0001) > PTRACERS_units(27)='mmol P/m^3'
(PID.TID 0000.0001) > PTRACERS_advScheme(27)=33,
(PID.TID 0000.0001) > PTRACERS_diffKh(27)=0.E3,
(PID.TID 0000.0001) > PTRACERS_diffKr(27)=1.E-5,
(PID.TID 0000.0001) > PTRACERS_useGMRedi(27)=.FALSE. ,
(PID.TID 0000.0001) > PTRACERS_useKPP(27)=.FALSE.  ,
(PID.TID 0000.0001) > PTRACERS_initialFile(27)='../input/input/loc1_biomass_run83_janprof.bin',
(PID.TID 0000.0001) ># tracer 28 - PHYT07
(PID.TID 0000.0001) > PTRACERS_names(28)='Phy7',
(PID.TID 0000.0001) > PTRACERS_units(28)='mmol P/m^3'
(PID.TID 0000.0001) > PTRACERS_advScheme(28)=33,
(PID.TID 0000.0001) > PTRACERS_diffKh(28)=0.E3,
(PID.TID 0000.0001) > PTRACERS_diffKr(28)=1.E-5,
(PID.TID 0000.0001) > PTRACERS_useGMRedi(28)=.FALSE. ,
(PID.TID 0000.0001) > PTRACERS_useKPP(28)=.FALSE.  ,
(PID.TID 0000.0001) > PTRACERS_initialFile(28)='../input/input/loc1_biomass_run83_janprof.bin',
(PID.TID 0000.0001) ># tracer 29 - PHYT08
(PID.TID 0000.0001) > PTRACERS_names(29)='Phy8',
(PID.TID 0000.0001) > PTRACERS_units(29)='mmol P/m^3'
(PID.TID 0000.0001) > PTRACERS_advScheme(29)=33,
(PID.TID 0000.0001) > PTRACERS_diffKh(29)=0.E3,
(PID.TID 0000.0001) > PTRACERS_diffKr(29)=1.E-5,
(PID.TID 0000.0001) > PTRACERS_useGMRedi(29)=.FALSE. ,
(PID.TID 0000.0001) > PTRACERS_useKPP(29)=.FALSE.  ,
(PID.TID 0000.0001) > PTRACERS_initialFile(29)='../input/input/loc1_biomass_run83_janprof.bin',
(PID.TID 0000.0001) ># tracer 30 - PHYT09
(PID.TID 0000.0001) > PTRACERS_names(30)='Phy9',
(PID.TID 0000.0001) > PTRACERS_units(30)='mmol P/m^3'
(PID.TID 0000.0001) > PTRACERS_advScheme(30)=33,
(PID.TID 0000.0001) > PTRACERS_diffKh(30)=0.E3,
(PID.TID 0000.0001) > PTRACERS_diffKr(30)=1.E-5,
(PID.TID 0000.0001) > PTRACERS_useGMRedi(30)=.FALSE. ,
(PID.TID 0000.0001) > PTRACERS_useKPP(30)=.FALSE.  ,
(PID.TID 0000.0001) > PTRACERS_initialFile(30)='../input/input/loc1_biomass_run83_janprof.bin',
(PID.TID 0000.0001) ># tracer 31 - PHYT10
(PID.TID 0000.0001) > PTRACERS_names(31)='Phy10',
(PID.TID 0000.0001) > PTRACERS_units(31)='mmol P/m^3'
(PID.TID 0000.0001) > PTRACERS_advScheme(31)=33,
(PID.TID 0000.0001) > PTRACERS_diffKh(31)=0.E3,
(PID.TID 0000.0001) > PTRACERS_diffKr(31)=1.E-5,
(PID.TID 0000.0001) > PTRACERS_useGMRedi(31)=.FALSE. ,
(PID.TID 0000.0001) > PTRACERS_useKPP(31)=.FALSE.  ,
(PID.TID 0000.0001) > PTRACERS_initialFile(31)='../input/input/loc1_biomass_run83_janprof.bin',
(PID.TID 0000.0001) ># tracer 32 - PHYT11
(PID.TID 0000.0001) > PTRACERS_names(32)='Phy11',
(PID.TID 0000.0001) > PTRACERS_units(32)='mmol P/m^3'
(PID.TID 0000.0001) > PTRACERS_advScheme(32)=33,
(PID.TID 0000.0001) > PTRACERS_diffKh(32)=0.E3,
(PID.TID 0000.0001) > PTRACERS_diffKr(32)=1.E-5,
(PID.TID 0000.0001) > PTRACERS_useGMRedi(32)=.FALSE. ,
(PID.TID 0000.0001) > PTRACERS_useKPP(32)=.FALSE.  ,
(PID.TID 0000.0001) > PTRACERS_initialFile(32)='../input/input/loc1_biomass_run83_janprof.bin',
(PID.TID 0000.0001) ># tracer 0 - PHYT12
(PID.TID 0000.0001) > PTRACERS_names(33)='Phy12',
(PID.TID 0000.0001) > PTRACERS_units(33)='mmol P/m^3'
(PID.TID 0000.0001) > PTRACERS_advScheme(33)=33,
(PID.TID 0000.0001) > PTRACERS_diffKh(33)=0.E3,
(PID.TID 0000.0001) > PTRACERS_diffKr(33)=1.E-5,
(PID.TID 0000.0001) > PTRACERS_useGMRedi(33)=.FALSE. ,
(PID.TID 0000.0001) > PTRACERS_useKPP(33)=.FALSE.  ,
(PID.TID 0000.0001) > PTRACERS_initialFile(33)='../input/input/loc1_biomass_run83_janprof.bin',
(PID.TID 0000.0001) ># tracer 34 - PHYT13
(PID.TID 0000.0001) > PTRACERS_names(34)='Phy13',
(PID.TID 0000.0001) > PTRACERS_units(34)='mmol P/m^3'
(PID.TID 0000.0001) > PTRACERS_advScheme(34)=33,
(PID.TID 0000.0001) > PTRACERS_diffKh(34)=0.E3,
(PID.TID 0000.0001) > PTRACERS_diffKr(34)=1.E-5,
(PID.TID 0000.0001) > PTRACERS_useGMRedi(34)=.FALSE. ,
(PID.TID 0000.0001) > PTRACERS_useKPP(34)=.FALSE.  ,
(PID.TID 0000.0001) > PTRACERS_initialFile(34)='../input/input/loc1_biomass_run83_janprof.bin',
(PID.TID 0000.0001) ># tracer 35 - PHYT14
(PID.TID 0000.0001) > PTRACERS_names(35)='Phy14',
(PID.TID 0000.0001) > PTRACERS_units(35)='mmol P/m^3'
(PID.TID 0000.0001) > PTRACERS_advScheme(35)=33,
(PID.TID 0000.0001) > PTRACERS_diffKh(35)=0.E3,
(PID.TID 0000.0001) > PTRACERS_diffKr(35)=1.E-5,
(PID.TID 0000.0001) > PTRACERS_useGMRedi(35)=.FALSE. ,
(PID.TID 0000.0001) > PTRACERS_useKPP(35)=.FALSE.  ,
(PID.TID 0000.0001) > PTRACERS_initialFile(35)='../input/input/loc1_biomass_run83_janprof.bin',
(PID.TID 0000.0001) ># tracer 36 - PHYT15
(PID.TID 0000.0001) > PTRACERS_names(36)='Phy15',
(PID.TID 0000.0001) > PTRACERS_units(36)='mmol P/m^3'
(PID.TID 0000.0001) > PTRACERS_advScheme(36)=33,
(PID.TID 0000.0001) > PTRACERS_diffKh(36)=0.E3,
(PID.TID 0000.0001) > PTRACERS_diffKr(36)=1.E-5,
(PID.TID 0000.0001) > PTRACERS_useGMRedi(36)=.FALSE. ,
(PID.TID 0000.0001) > PTRACERS_useKPP(36)=.FALSE.  ,
(PID.TID 0000.0001) > PTRACERS_initialFile(36)='../input/input/loc1_biomass_run83_janprof.bin',
(PID.TID 0000.0001) ># tracer 37 - PHYT16
(PID.TID 0000.0001) > PTRACERS_names(37)='Phy16',
(PID.TID 0000.0001) > PTRACERS_units(37)='mmol P/m^3'
(PID.TID 0000.0001) > PTRACERS_advScheme(37)=33,
(PID.TID 0000.0001) > PTRACERS_diffKh(37)=0.E3,
(PID.TID 0000.0001) > PTRACERS_diffKr(37)=1.E-5,
(PID.TID 0000.0001) > PTRACERS_useGMRedi(37)=.FALSE. ,
(PID.TID 0000.0001) > PTRACERS_useKPP(37)=.FALSE.  ,
(PID.TID 0000.0001) > PTRACERS_initialFile(37)='../input/input/loc1_biomass_run83_janprof.bin',
(PID.TID 0000.0001) ># tracer 38 - PHYT17
(PID.TID 0000.0001) > PTRACERS_names(38)='Phy17',
(PID.TID 0000.0001) > PTRACERS_units(38)='mmol P/m^3'
(PID.TID 0000.0001) > PTRACERS_advScheme(38)=33,
(PID.TID 0000.0001) > PTRACERS_diffKh(38)=0.E3,
(PID.TID 0000.0001) > PTRACERS_diffKr(38)=1.E-5,
(PID.TID 0000.0001) > PTRACERS_useGMRedi(38)=.FALSE. ,
(PID.TID 0000.0001) > PTRACERS_useKPP(38)=.FALSE.  ,
(PID.TID 0000.0001) > PTRACERS_initialFile(38)='../input/input/loc1_biomass_run83_janprof.bin',
(PID.TID 0000.0001) ># tracer 39 - PHYT18
(PID.TID 0000.0001) > PTRACERS_names(39)='Phy18',
(PID.TID 0000.0001) > PTRACERS_units(39)='mmol P/m^3'
(PID.TID 0000.0001) > PTRACERS_advScheme(39)=33,
(PID.TID 0000.0001) > PTRACERS_diffKh(39)=0.E3,
(PID.TID 0000.0001) > PTRACERS_diffKr(39)=1.E-5,
(PID.TID 0000.0001) > PTRACERS_useGMRedi(39)=.FALSE. ,
(PID.TID 0000.0001) > PTRACERS_useKPP(39)=.FALSE.  ,
(PID.TID 0000.0001) > PTRACERS_initialFile(39)='../input/input/loc1_biomass_run83_janprof.bin',
(PID.TID 0000.0001) ># tracer 40 - PHYT19
(PID.TID 0000.0001) > PTRACERS_names(40)='Phy19',
(PID.TID 0000.0001) > PTRACERS_units(40)='mmol P/m^3'
(PID.TID 0000.0001) > PTRACERS_advScheme(40)=33,
(PID.TID 0000.0001) > PTRACERS_diffKh(40)=0.E3,
(PID.TID 0000.0001) > PTRACERS_diffKr(40)=1.E-5,
(PID.TID 0000.0001) > PTRACERS_useGMRedi(40)=.FALSE. ,
(PID.TID 0000.0001) > PTRACERS_useKPP(40)=.FALSE.  ,
(PID.TID 0000.0001) > PTRACERS_initialFile(40)='../input/input/loc1_biomass_run83_janprof.bin',
(PID.TID 0000.0001) ># tracer 41 - PHYT20
(PID.TID 0000.0001) > PTRACERS_names(41)='Phy20',
(PID.TID 0000.0001) > PTRACERS_units(41)='mmol P/m^3'
(PID.TID 0000.0001) > PTRACERS_advScheme(41)=33,
(PID.TID 0000.0001) > PTRACERS_diffKh(41)=0.E3,
(PID.TID 0000.0001) > PTRACERS_diffKr(41)=1.E-5,
(PID.TID 0000.0001) > PTRACERS_useGMRedi(41)=.FALSE. ,
(PID.TID 0000.0001) > PTRACERS_useKPP(41)=.FALSE.  ,
(PID.TID 0000.0001) > PTRACERS_initialFile(41)='../input/input/loc1_biomass_run83_janprof.bin',
(PID.TID 0000.0001) ># tracer 42 - PHYT21
(PID.TID 0000.0001) > PTRACERS_names(42)='Phy21',
(PID.TID 0000.0001) > PTRACERS_units(42)='mmol P/m^3'
(PID.TID 0000.0001) > PTRACERS_advScheme(42)=33,
(PID.TID 0000.0001) > PTRACERS_diffKh(42)=0.E3,
(PID.TID 0000.0001) > PTRACERS_diffKr(42)=1.E-5,
(PID.TID 0000.0001) > PTRACERS_useGMRedi(42)=.FALSE. ,
(PID.TID 0000.0001) > PTRACERS_useKPP(42)=.FALSE.  ,
(PID.TID 0000.0001) > PTRACERS_initialFile(42)='../input/input/loc1_biomass_run83_janprof.bin',
(PID.TID 0000.0001) ># tracer 43 - PHYT22
(PID.TID 0000.0001) > PTRACERS_names(43)='Phy22',
(PID.TID 0000.0001) > PTRACERS_units(43)='mmol P/m^3'
(PID.TID 0000.0001) > PTRACERS_advScheme(43)=33,
(PID.TID 0000.0001) > PTRACERS_diffKh(43)=0.E3,
(PID.TID 0000.0001) > PTRACERS_diffKr(43)=1.E-5,
(PID.TID 0000.0001) > PTRACERS_useGMRedi(43)=.FALSE. ,
(PID.TID 0000.0001) > PTRACERS_useKPP(43)=.FALSE.  ,
(PID.TID 0000.0001) > PTRACERS_initialFile(43)='../input/input/loc1_biomass_run83_janprof.bin',
(PID.TID 0000.0001) ># tracer 44 - PHYT23
(PID.TID 0000.0001) > PTRACERS_names(44)='Phy23',
(PID.TID 0000.0001) > PTRACERS_units(44)='mmol P/m^3'
(PID.TID 0000.0001) > PTRACERS_advScheme(44)=33,
(PID.TID 0000.0001) > PTRACERS_diffKh(44)=0.E3,
(PID.TID 0000.0001) > PTRACERS_diffKr(44)=1.E-5,
(PID.TID 0000.0001) > PTRACERS_useGMRedi(44)=.FALSE. ,
(PID.TID 0000.0001) > PTRACERS_useKPP(44)=.FALSE.  ,
(PID.TID 0000.0001) > PTRACERS_initialFile(44)='../input/input/loc1_biomass_run83_janprof.bin',
(PID.TID 0000.0001) ># tracer 45 - PHYT24
(PID.TID 0000.0001) > PTRACERS_names(45)='Phy24',
(PID.TID 0000.0001) > PTRACERS_units(45)='mmol P/m^3'
(PID.TID 0000.0001) > PTRACERS_advScheme(45)=33,
(PID.TID 0000.0001) > PTRACERS_diffKh(45)=0.E3,
(PID.TID 0000.0001) > PTRACERS_diffKr(45)=1.E-5,
(PID.TID 0000.0001) > PTRACERS_useGMRedi(45)=.FALSE. ,
(PID.TID 0000.0001) > PTRACERS_useKPP(45)=.FALSE.  ,
(PID.TID 0000.0001) > PTRACERS_initialFile(45)='../input/input/loc1_biomass_run83_janprof.bin',
(PID.TID 0000.0001) ># tracer 46 - PHYT25
(PID.TID 0000.0001) > PTRACERS_names(46)='Phy25',
(PID.TID 0000.0001) > PTRACERS_units(46)='mmol P/m^3'
(PID.TID 0000.0001) > PTRACERS_advScheme(46)=33,
(PID.TID 0000.0001) > PTRACERS_diffKh(46)=0.E3,
(PID.TID 0000.0001) > PTRACERS_diffKr(46)=1.E-5,
(PID.TID 0000.0001) > PTRACERS_useGMRedi(46)=.FALSE. ,
(PID.TID 0000.0001) > PTRACERS_useKPP(46)=.FALSE.  ,
(PID.TID 0000.0001) > PTRACERS_initialFile(46)='../input/input/loc1_biomass_run83_janprof.bin',
(PID.TID 0000.0001) ># tracer 47 - PHYT26
(PID.TID 0000.0001) > PTRACERS_names(47)='Phy26',
(PID.TID 0000.0001) > PTRACERS_units(47)='mmol P/m^3'
(PID.TID 0000.0001) > PTRACERS_advScheme(47)=33,
(PID.TID 0000.0001) > PTRACERS_diffKh(47)=0.E3,
(PID.TID 0000.0001) > PTRACERS_diffKr(47)=1.E-5,
(PID.TID 0000.0001) > PTRACERS_useGMRedi(47)=.FALSE. ,
(PID.TID 0000.0001) > PTRACERS_useKPP(47)=.FALSE.  ,
(PID.TID 0000.0001) > PTRACERS_initialFile(47)='../input/input/loc1_biomass_run83_janprof.bin',
(PID.TID 0000.0001) ># tracer 48 - PHYT27
(PID.TID 0000.0001) > PTRACERS_names(48)='Phy27',
(PID.TID 0000.0001) > PTRACERS_units(48)='mmol P/m^3'
(PID.TID 0000.0001) > PTRACERS_advScheme(48)=33,
(PID.TID 0000.0001) > PTRACERS_diffKh(48)=0.E3,
(PID.TID 0000.0001) > PTRACERS_diffKr(48)=1.E-5,
(PID.TID 0000.0001) > PTRACERS_useGMRedi(48)=.FALSE. ,
(PID.TID 0000.0001) > PTRACERS_useKPP(48)=.FALSE.  ,
(PID.TID 0000.0001) > PTRACERS_initialFile(48)='../input/input/loc1_biomass_run83_janprof.bin',
(PID.TID 0000.0001) ># tracer 49 - PHYT28
(PID.TID 0000.0001) > PTRACERS_names(49)='Phy28',
(PID.TID 0000.0001) > PTRACERS_units(49)='mmol P/m^3'
(PID.TID 0000.0001) > PTRACERS_advScheme(49)=33,
(PID.TID 0000.0001) > PTRACERS_diffKh(49)=0.E3,
(PID.TID 0000.0001) > PTRACERS_diffKr(49)=1.E-5,
(PID.TID 0000.0001) > PTRACERS_useGMRedi(49)=.FALSE. ,
(PID.TID 0000.0001) > PTRACERS_useKPP(49)=.FALSE.  ,
(PID.TID 0000.0001) > PTRACERS_initialFile(49)='../input/input/loc1_biomass_run83_janprof.bin',
(PID.TID 0000.0001) ># tracer 50 - PHYT29
(PID.TID 0000.0001) > PTRACERS_names(50)='Phy29',
(PID.TID 0000.0001) > PTRACERS_units(50)='mmol P/m^3'
(PID.TID 0000.0001) > PTRACERS_advScheme(50)=33,
(PID.TID 0000.0001) > PTRACERS_diffKh(50)=0.E3,
(PID.TID 0000.0001) > PTRACERS_diffKr(50)=1.E-5,
(PID.TID 0000.0001) > PTRACERS_useGMRedi(50)=.FALSE. ,
(PID.TID 0000.0001) > PTRACERS_useKPP(50)=.FALSE.  ,
(PID.TID 0000.0001) > PTRACERS_initialFile(50)='../input/input/loc1_biomass_run83_janprof.bin',
(PID.TID 0000.0001) ># tracer 51 - PHY30
(PID.TID 0000.0001) > PTRACERS_names(51)='Phy30',
(PID.TID 0000.0001) > PTRACERS_units(51)='mmol P/m^3'
(PID.TID 0000.0001) > PTRACERS_advScheme(51)=33,
(PID.TID 0000.0001) > PTRACERS_diffKh(51)=0.E3,
(PID.TID 0000.0001) > PTRACERS_diffKr(51)=1.E-5,
(PID.TID 0000.0001) > PTRACERS_useGMRedi(51)=.FALSE. ,
(PID.TID 0000.0001) > PTRACERS_useKPP(51)=.FALSE.  ,
(PID.TID 0000.0001) > PTRACERS_initialFile(51)='../input/input/loc1_biomass_run83_janprof.bin',
(PID.TID 0000.0001) ># tracer 52 - PHY31
(PID.TID 0000.0001) > PTRACERS_names(52)='Phy31',
(PID.TID 0000.0001) > PTRACERS_units(52)='mmol P/m^3'
(PID.TID 0000.0001) > PTRACERS_advScheme(52)=33,
(PID.TID 0000.0001) > PTRACERS_diffKh(52)=0.E3,
(PID.TID 0000.0001) > PTRACERS_diffKr(52)=1.E-5,
(PID.TID 0000.0001) > PTRACERS_useGMRedi(52)=.FALSE. ,
(PID.TID 0000.0001) > PTRACERS_useKPP(52)=.FALSE.  ,
(PID.TID 0000.0001) > PTRACERS_initialFile(52)='../input/input/loc1_biomass_run83_janprof.bin',
(PID.TID 0000.0001) ># tracer 53 - PHY32
(PID.TID 0000.0001) > PTRACERS_names(53)='Phy32',
(PID.TID 0000.0001) > PTRACERS_units(53)='mmol P/m^3'
(PID.TID 0000.0001) > PTRACERS_advScheme(53)=33,
(PID.TID 0000.0001) > PTRACERS_diffKh(53)=0.E3,
(PID.TID 0000.0001) > PTRACERS_diffKr(53)=1.E-5,
(PID.TID 0000.0001) > PTRACERS_useGMRedi(53)=.FALSE. ,
(PID.TID 0000.0001) > PTRACERS_useKPP(53)=.FALSE.  ,
(PID.TID 0000.0001) > PTRACERS_initialFile(53)='../input/input/loc1_biomass_run83_janprof.bin',
(PID.TID 0000.0001) ># tracer 54 - PHY33
(PID.TID 0000.0001) > PTRACERS_names(54)='Phy33',
(PID.TID 0000.0001) > PTRACERS_units(54)='mmol P/m^3'
(PID.TID 0000.0001) > PTRACERS_advScheme(54)=33,
(PID.TID 0000.0001) > PTRACERS_diffKh(54)=0.E3,
(PID.TID 0000.0001) > PTRACERS_diffKr(54)=1.E-5,
(PID.TID 0000.0001) > PTRACERS_useGMRedi(54)=.FALSE. ,
(PID.TID 0000.0001) > PTRACERS_useKPP(54)=.FALSE.  ,
(PID.TID 0000.0001) > PTRACERS_initialFile(54)='../input/input/loc1_biomass_run83_janprof.bin',
(PID.TID 0000.0001) ># tracer 55 - PHY34
(PID.TID 0000.0001) > PTRACERS_names(55)='Phy34',
(PID.TID 0000.0001) > PTRACERS_units(55)='mmol P/m^3'
(PID.TID 0000.0001) > PTRACERS_advScheme(55)=33,
(PID.TID 0000.0001) > PTRACERS_diffKh(55)=0.E3,
(PID.TID 0000.0001) > PTRACERS_diffKr(55)=1.E-5,
(PID.TID 0000.0001) > PTRACERS_useGMRedi(55)=.FALSE. ,
(PID.TID 0000.0001) > PTRACERS_useKPP(55)=.FALSE.  ,
(PID.TID 0000.0001) > PTRACERS_initialFile(55)='../input/input/loc1_biomass_run83_janprof.bin',
(PID.TID 0000.0001) ># tracer 56 - PHY35
(PID.TID 0000.0001) > PTRACERS_names(56)='Phy35',
(PID.TID 0000.0001) > PTRACERS_units(56)='mmol P/m^3'
(PID.TID 0000.0001) > PTRACERS_advScheme(56)=33,
(PID.TID 0000.0001) > PTRACERS_diffKh(56)=0.E3,
(PID.TID 0000.0001) > PTRACERS_diffKr(56)=1.E-5,
(PID.TID 0000.0001) > PTRACERS_useGMRedi(56)=.FALSE. ,
(PID.TID 0000.0001) > PTRACERS_useKPP(56)=.FALSE.  ,
(PID.TID 0000.0001) > PTRACERS_initialFile(56)='../input/input/loc1_biomass_run83_janprof.bin',
(PID.TID 0000.0001) ># tracer 57 - PHY36
(PID.TID 0000.0001) > PTRACERS_names(57)='Phy36',
(PID.TID 0000.0001) > PTRACERS_units(57)='mmol P/m^3'
(PID.TID 0000.0001) > PTRACERS_advScheme(57)=33,
(PID.TID 0000.0001) > PTRACERS_diffKh(57)=0.E3,
(PID.TID 0000.0001) > PTRACERS_diffKr(57)=1.E-5,
(PID.TID 0000.0001) > PTRACERS_useGMRedi(57)=.FALSE. ,
(PID.TID 0000.0001) > PTRACERS_useKPP(57)=.FALSE.  ,
(PID.TID 0000.0001) > PTRACERS_initialFile(57)='../input/input/loc1_biomass_run83_janprof.bin',
(PID.TID 0000.0001) ># tracer 58 - PHY37
(PID.TID 0000.0001) > PTRACERS_names(58)='Phy37',
(PID.TID 0000.0001) > PTRACERS_units(58)='mmol P/m^3'
(PID.TID 0000.0001) > PTRACERS_advScheme(58)=33,
(PID.TID 0000.0001) > PTRACERS_diffKh(58)=0.E3,
(PID.TID 0000.0001) > PTRACERS_diffKr(58)=1.E-5,
(PID.TID 0000.0001) > PTRACERS_useGMRedi(58)=.FALSE. ,
(PID.TID 0000.0001) > PTRACERS_useKPP(58)=.FALSE.  ,
(PID.TID 0000.0001) > PTRACERS_initialFile(58)='../input/input/loc1_biomass_run83_janprof.bin',
(PID.TID 0000.0001) ># tracer 59 - PHY38
(PID.TID 0000.0001) > PTRACERS_names(59)='Phy38',
(PID.TID 0000.0001) > PTRACERS_units(59)='mmol P/m^3'
(PID.TID 0000.0001) > PTRACERS_advScheme(59)=33,
(PID.TID 0000.0001) > PTRACERS_diffKh(59)=0.E3,
(PID.TID 0000.0001) > PTRACERS_diffKr(59)=1.E-5,
(PID.TID 0000.0001) > PTRACERS_useGMRedi(59)=.FALSE. ,
(PID.TID 0000.0001) > PTRACERS_useKPP(59)=.FALSE.  ,
(PID.TID 0000.0001) > PTRACERS_initialFile(59)='../input/input/loc1_biomass_run83_janprof.bin',
(PID.TID 0000.0001) ># tracer 60 - PHY39
(PID.TID 0000.0001) > PTRACERS_names(60)='Phy39',
(PID.TID 0000.0001) > PTRACERS_units(60)='mmol P/m^3'
(PID.TID 0000.0001) > PTRACERS_advScheme(60)=33,
(PID.TID 0000.0001) > PTRACERS_diffKh(60)=0.E3,
(PID.TID 0000.0001) > PTRACERS_diffKr(60)=1.E-5,
(PID.TID 0000.0001) > PTRACERS_useGMRedi(60)=.FALSE. ,
(PID.TID 0000.0001) > PTRACERS_useKPP(60)=.FALSE.  ,
(PID.TID 0000.0001) > PTRACERS_initialFile(60)='../input/input/loc1_biomass_run83_janprof.bin',
(PID.TID 0000.0001) ># tracer 61 - PHY40
(PID.TID 0000.0001) > PTRACERS_names(61)='Phy40',
(PID.TID 0000.0001) > PTRACERS_units(61)='mmol P/m^3'
(PID.TID 0000.0001) > PTRACERS_advScheme(61)=33,
(PID.TID 0000.0001) > PTRACERS_diffKh(61)=0.E3,
(PID.TID 0000.0001) > PTRACERS_diffKr(61)=1.E-5,
(PID.TID 0000.0001) > PTRACERS_useGMRedi(61)=.FALSE. ,
(PID.TID 0000.0001) > PTRACERS_useKPP(61)=.FALSE.  ,
(PID.TID 0000.0001) > PTRACERS_initialFile(61)='../input/input/loc1_biomass_run83_janprof.bin',
(PID.TID 0000.0001) ># tracer 62 - PHY41
(PID.TID 0000.0001) > PTRACERS_names(62)='Phy41',
(PID.TID 0000.0001) > PTRACERS_units(62)='mmol P/m^3'
(PID.TID 0000.0001) > PTRACERS_advScheme(62)=33,
(PID.TID 0000.0001) > PTRACERS_diffKh(62)=0.E3,
(PID.TID 0000.0001) > PTRACERS_diffKr(62)=1.E-5,
(PID.TID 0000.0001) > PTRACERS_useGMRedi(62)=.FALSE. ,
(PID.TID 0000.0001) > PTRACERS_useKPP(62)=.FALSE.  ,
(PID.TID 0000.0001) > PTRACERS_initialFile(62)='../input/input/loc1_biomass_run83_janprof.bin',
(PID.TID 0000.0001) ># tracer 63 - PHY42
(PID.TID 0000.0001) > PTRACERS_names(63)='Phy42',
(PID.TID 0000.0001) > PTRACERS_units(63)='mmol P/m^3'
(PID.TID 0000.0001) > PTRACERS_advScheme(63)=33,
(PID.TID 0000.0001) > PTRACERS_diffKh(63)=0.E3,
(PID.TID 0000.0001) > PTRACERS_diffKr(63)=1.E-5,
(PID.TID 0000.0001) > PTRACERS_useGMRedi(63)=.FALSE. ,
(PID.TID 0000.0001) > PTRACERS_useKPP(63)=.FALSE.  ,
(PID.TID 0000.0001) > PTRACERS_initialFile(63)='../input/input/loc1_biomass_run83_janprof.bin',
(PID.TID 0000.0001) ># tracer 64 - PHY43
(PID.TID 0000.0001) > PTRACERS_names(64)='Phy43',
(PID.TID 0000.0001) > PTRACERS_units(64)='mmol P/m^3'
(PID.TID 0000.0001) > PTRACERS_advScheme(64)=33,
(PID.TID 0000.0001) > PTRACERS_diffKh(64)=0.E3,
(PID.TID 0000.0001) > PTRACERS_diffKr(64)=1.E-5,
(PID.TID 0000.0001) > PTRACERS_useGMRedi(64)=.FALSE. ,
(PID.TID 0000.0001) > PTRACERS_useKPP(64)=.FALSE.  ,
(PID.TID 0000.0001) > PTRACERS_initialFile(64)='../input/input/loc1_biomass_run83_janprof.bin',
(PID.TID 0000.0001) ># tracer 65 - PHY44
(PID.TID 0000.0001) > PTRACERS_names(65)='Phy44',
(PID.TID 0000.0001) > PTRACERS_units(65)='mmol P/m^3'
(PID.TID 0000.0001) > PTRACERS_advScheme(65)=33,
(PID.TID 0000.0001) > PTRACERS_diffKh(65)=0.E3,
(PID.TID 0000.0001) > PTRACERS_diffKr(65)=1.E-5,
(PID.TID 0000.0001) > PTRACERS_useGMRedi(65)=.FALSE. ,
(PID.TID 0000.0001) > PTRACERS_useKPP(65)=.FALSE.  ,
(PID.TID 0000.0001) > PTRACERS_initialFile(65)='../input/input/loc1_biomass_run83_janprof.bin',
(PID.TID 0000.0001) ># tracer 66 - PHY45
(PID.TID 0000.0001) > PTRACERS_names(66)='Phy45',
(PID.TID 0000.0001) > PTRACERS_units(66)='mmol P/m^3'
(PID.TID 0000.0001) > PTRACERS_advScheme(66)=33,
(PID.TID 0000.0001) > PTRACERS_diffKh(66)=0.E3,
(PID.TID 0000.0001) > PTRACERS_diffKr(66)=1.E-5,
(PID.TID 0000.0001) > PTRACERS_useGMRedi(66)=.FALSE. ,
(PID.TID 0000.0001) > PTRACERS_useKPP(66)=.FALSE.  ,
(PID.TID 0000.0001) > PTRACERS_initialFile(66)='../input/input/loc1_biomass_run83_janprof.bin',
(PID.TID 0000.0001) ># tracer 67 - PHY46
(PID.TID 0000.0001) > PTRACERS_names(67)='Phy46',
(PID.TID 0000.0001) > PTRACERS_units(67)='mmol P/m^3'
(PID.TID 0000.0001) > PTRACERS_advScheme(67)=33,
(PID.TID 0000.0001) > PTRACERS_diffKh(67)=0.E3,
(PID.TID 0000.0001) > PTRACERS_diffKr(67)=1.E-5,
(PID.TID 0000.0001) > PTRACERS_useGMRedi(67)=.FALSE. ,
(PID.TID 0000.0001) > PTRACERS_useKPP(67)=.FALSE.  ,
(PID.TID 0000.0001) > PTRACERS_initialFile(67)='../input/input/loc1_biomass_run83_janprof.bin',
(PID.TID 0000.0001) ># tracer 68 - PHY47
(PID.TID 0000.0001) > PTRACERS_names(68)='Phy47',
(PID.TID 0000.0001) > PTRACERS_units(68)='mmol P/m^3'
(PID.TID 0000.0001) > PTRACERS_advScheme(68)=33,
(PID.TID 0000.0001) > PTRACERS_diffKh(68)=0.E3,
(PID.TID 0000.0001) > PTRACERS_diffKr(68)=1.E-5,
(PID.TID 0000.0001) > PTRACERS_useGMRedi(68)=.FALSE. ,
(PID.TID 0000.0001) > PTRACERS_useKPP(68)=.FALSE.  ,
(PID.TID 0000.0001) > PTRACERS_initialFile(68)='../input/input/loc1_biomass_run83_janprof.bin',
(PID.TID 0000.0001) ># tracer 69 - PHY48
(PID.TID 0000.0001) > PTRACERS_names(69)='Phy48',
(PID.TID 0000.0001) > PTRACERS_units(69)='mmol P/m^3'
(PID.TID 0000.0001) > PTRACERS_advScheme(69)=33,
(PID.TID 0000.0001) > PTRACERS_diffKh(69)=0.E3,
(PID.TID 0000.0001) > PTRACERS_diffKr(69)=1.E-5,
(PID.TID 0000.0001) > PTRACERS_useGMRedi(69)=.FALSE. ,
(PID.TID 0000.0001) > PTRACERS_useKPP(69)=.FALSE.  ,
(PID.TID 0000.0001) > PTRACERS_initialFile(69)='../input/input/loc1_biomass_run83_janprof.bin',
(PID.TID 0000.0001) ># tracer 70 - PHY49
(PID.TID 0000.0001) > PTRACERS_names(70)='Phy49',
(PID.TID 0000.0001) > PTRACERS_units(70)='mmol P/m^3'
(PID.TID 0000.0001) > PTRACERS_advScheme(70)=33,
(PID.TID 0000.0001) > PTRACERS_diffKh(70)=0.E3,
(PID.TID 0000.0001) > PTRACERS_diffKr(70)=1.E-5,
(PID.TID 0000.0001) > PTRACERS_useGMRedi(70)=.FALSE. ,
(PID.TID 0000.0001) > PTRACERS_useKPP(70)=.FALSE.  ,
(PID.TID 0000.0001) > PTRACERS_initialFile(70)='../input/input/loc1_biomass_run83_janprof.bin',
(PID.TID 0000.0001) ># tracer 71 - PHY50
(PID.TID 0000.0001) > PTRACERS_names(71)='Phy50',
(PID.TID 0000.0001) > PTRACERS_units(71)='mmol P/m^3'
(PID.TID 0000.0001) > PTRACERS_advScheme(71)=33,
(PID.TID 0000.0001) > PTRACERS_diffKh(71)=0.E3,
(PID.TID 0000.0001) > PTRACERS_diffKr(71)=1.E-5,
(PID.TID 0000.0001) > PTRACERS_useGMRedi(71)=.FALSE. ,
(PID.TID 0000.0001) > PTRACERS_useKPP(71)=.FALSE.  ,
(PID.TID 0000.0001) > PTRACERS_initialFile(71)='../input/input/loc1_biomass_run83_janprof.bin',
(PID.TID 0000.0001) ># tracer 72 - PHY51
(PID.TID 0000.0001) > PTRACERS_names(72)='Phy51',
(PID.TID 0000.0001) > PTRACERS_units(72)='mmol P/m^3'
(PID.TID 0000.0001) > PTRACERS_advScheme(72)=33,
(PID.TID 0000.0001) > PTRACERS_diffKh(72)=0.E3,
(PID.TID 0000.0001) > PTRACERS_diffKr(72)=1.E-5,
(PID.TID 0000.0001) > PTRACERS_useGMRedi(72)=.FALSE. ,
(PID.TID 0000.0001) > PTRACERS_useKPP(72)=.FALSE.  ,
(PID.TID 0000.0001) > PTRACERS_initialFile(72)='../input/input/loc1_biomass_run83_janprof.bin',
(PID.TID 0000.0001) ># tracer 73 - PHY52
(PID.TID 0000.0001) > PTRACERS_names(73)='Phy52',
(PID.TID 0000.0001) > PTRACERS_units(73)='mmol P/m^3'
(PID.TID 0000.0001) > PTRACERS_advScheme(73)=33,
(PID.TID 0000.0001) > PTRACERS_diffKh(73)=0.E3,
(PID.TID 0000.0001) > PTRACERS_diffKr(73)=1.E-5,
(PID.TID 0000.0001) > PTRACERS_useGMRedi(73)=.FALSE. ,
(PID.TID 0000.0001) > PTRACERS_useKPP(73)=.FALSE.  ,
(PID.TID 0000.0001) > PTRACERS_initialFile(73)='../input/input/loc1_biomass_run83_janprof.bin',
(PID.TID 0000.0001) ># tracer 74 - PHY53
(PID.TID 0000.0001) > PTRACERS_names(74)='Phy53',
(PID.TID 0000.0001) > PTRACERS_units(74)='mmol P/m^3'
(PID.TID 0000.0001) > PTRACERS_advScheme(74)=33,
(PID.TID 0000.0001) > PTRACERS_diffKh(74)=0.E3,
(PID.TID 0000.0001) > PTRACERS_diffKr(74)=1.E-5,
(PID.TID 0000.0001) > PTRACERS_useGMRedi(74)=.FALSE. ,
(PID.TID 0000.0001) > PTRACERS_useKPP(74)=.FALSE.  ,
(PID.TID 0000.0001) > PTRACERS_initialFile(74)='../input/input/loc1_biomass_run83_janprof.bin',
(PID.TID 0000.0001) ># tracer 75 - PHY54
(PID.TID 0000.0001) > PTRACERS_names(75)='Phy54',
(PID.TID 0000.0001) > PTRACERS_units(75)='mmol P/m^3'
(PID.TID 0000.0001) > PTRACERS_advScheme(75)=33,
(PID.TID 0000.0001) > PTRACERS_diffKh(75)=0.E3,
(PID.TID 0000.0001) > PTRACERS_diffKr(75)=1.E-5,
(PID.TID 0000.0001) > PTRACERS_useGMRedi(75)=.FALSE. ,
(PID.TID 0000.0001) > PTRACERS_useKPP(75)=.FALSE.  ,
(PID.TID 0000.0001) > PTRACERS_initialFile(75)='../input/input/loc1_biomass_run83_janprof.bin',
(PID.TID 0000.0001) ># tracer 76 - PHY55
(PID.TID 0000.0001) > PTRACERS_names(76)='Phy55',
(PID.TID 0000.0001) > PTRACERS_units(76)='mmol P/m^3'
(PID.TID 0000.0001) > PTRACERS_advScheme(76)=33,
(PID.TID 0000.0001) > PTRACERS_diffKh(76)=0.E3,
(PID.TID 0000.0001) > PTRACERS_diffKr(76)=1.E-5,
(PID.TID 0000.0001) > PTRACERS_useGMRedi(76)=.FALSE. ,
(PID.TID 0000.0001) > PTRACERS_useKPP(76)=.FALSE.  ,
(PID.TID 0000.0001) > PTRACERS_initialFile(76)='../input/input/loc1_biomass_run83_janprof.bin',
(PID.TID 0000.0001) ># tracer 77 - PHY56
(PID.TID 0000.0001) > PTRACERS_names(77)='Phy56',
(PID.TID 0000.0001) > PTRACERS_units(77)='mmol P/m^3'
(PID.TID 0000.0001) > PTRACERS_advScheme(77)=33,
(PID.TID 0000.0001) > PTRACERS_diffKh(77)=0.E3,
(PID.TID 0000.0001) > PTRACERS_diffKr(77)=1.E-5,
(PID.TID 0000.0001) > PTRACERS_useGMRedi(77)=.FALSE. ,
(PID.TID 0000.0001) > PTRACERS_useKPP(77)=.FALSE.  ,
(PID.TID 0000.0001) > PTRACERS_initialFile(77)='../input/input/loc1_biomass_run83_janprof.bin',
(PID.TID 0000.0001) ># tracer 78 - PHY57
(PID.TID 0000.0001) > PTRACERS_names(78)='Phy57',
(PID.TID 0000.0001) > PTRACERS_units(78)='mmol P/m^3'
(PID.TID 0000.0001) > PTRACERS_advScheme(78)=33,
(PID.TID 0000.0001) > PTRACERS_diffKh(78)=0.E3,
(PID.TID 0000.0001) > PTRACERS_diffKr(78)=1.E-5,
(PID.TID 0000.0001) > PTRACERS_useGMRedi(78)=.FALSE. ,
(PID.TID 0000.0001) > PTRACERS_useKPP(78)=.FALSE.  ,
(PID.TID 0000.0001) > PTRACERS_initialFile(78)='../input/input/loc1_biomass_run83_janprof.bin',
(PID.TID 0000.0001) ># tracer 79 - PHY58
(PID.TID 0000.0001) > PTRACERS_names(79)='Phy58',
(PID.TID 0000.0001) > PTRACERS_units(79)='mmol P/m^3'
(PID.TID 0000.0001) > PTRACERS_advScheme(79)=33,
(PID.TID 0000.0001) > PTRACERS_diffKh(79)=0.E3,
(PID.TID 0000.0001) > PTRACERS_diffKr(79)=1.E-5,
(PID.TID 0000.0001) > PTRACERS_useGMRedi(79)=.FALSE. ,
(PID.TID 0000.0001) > PTRACERS_useKPP(79)=.FALSE.  ,
(PID.TID 0000.0001) > PTRACERS_initialFile(79)='../input/input/loc1_biomass_run83_janprof.bin',
(PID.TID 0000.0001) ># tracer 80 - PHY59
(PID.TID 0000.0001) > PTRACERS_names(80)='Phy59',
(PID.TID 0000.0001) > PTRACERS_units(80)='mmol P/m^3'
(PID.TID 0000.0001) > PTRACERS_advScheme(80)=33,
(PID.TID 0000.0001) > PTRACERS_diffKh(80)=0.E3,
(PID.TID 0000.0001) > PTRACERS_diffKr(80)=1.E-5,
(PID.TID 0000.0001) > PTRACERS_useGMRedi(80)=.FALSE. ,
(PID.TID 0000.0001) > PTRACERS_useKPP(80)=.FALSE.  ,
(PID.TID 0000.0001) > PTRACERS_initialFile(80)='../input/input/loc1_biomass_run83_janprof.bin',
(PID.TID 0000.0001) ># tracer 81 - PHY60
(PID.TID 0000.0001) > PTRACERS_names(81)='Phy60',
(PID.TID 0000.0001) > PTRACERS_units(81)='mmol P/m^3'
(PID.TID 0000.0001) > PTRACERS_advScheme(81)=33,
(PID.TID 0000.0001) > PTRACERS_diffKh(81)=0.E3,
(PID.TID 0000.0001) > PTRACERS_diffKr(81)=1.E-5,
(PID.TID 0000.0001) > PTRACERS_useGMRedi(81)=.FALSE. ,
(PID.TID 0000.0001) > PTRACERS_useKPP(81)=.FALSE.  ,
(PID.TID 0000.0001) > PTRACERS_initialFile(81)='../input/input/loc1_biomass_run83_janprof.bin',
(PID.TID 0000.0001) ># tracer 82 - PHY61
(PID.TID 0000.0001) > PTRACERS_names(82)='Phy61',
(PID.TID 0000.0001) > PTRACERS_units(82)='mmol P/m^3'
(PID.TID 0000.0001) > PTRACERS_advScheme(82)=33,
(PID.TID 0000.0001) > PTRACERS_diffKh(82)=0.E3,
(PID.TID 0000.0001) > PTRACERS_diffKr(82)=1.E-5,
(PID.TID 0000.0001) > PTRACERS_useGMRedi(82)=.FALSE. ,
(PID.TID 0000.0001) > PTRACERS_useKPP(82)=.FALSE.  ,
(PID.TID 0000.0001) > PTRACERS_initialFile(82)='../input/input/loc1_biomass_run83_janprof.bin',
(PID.TID 0000.0001) ># tracer 83 - PHY62
(PID.TID 0000.0001) > PTRACERS_names(83)='Phy62',
(PID.TID 0000.0001) > PTRACERS_units(83)='mmol P/m^3'
(PID.TID 0000.0001) > PTRACERS_advScheme(83)=33,
(PID.TID 0000.0001) > PTRACERS_diffKh(83)=0.E3,
(PID.TID 0000.0001) > PTRACERS_diffKr(83)=1.E-5,
(PID.TID 0000.0001) > PTRACERS_useGMRedi(83)=.FALSE. ,
(PID.TID 0000.0001) > PTRACERS_useKPP(83)=.FALSE.  ,
(PID.TID 0000.0001) > PTRACERS_initialFile(83)='../input/input/loc1_biomass_run83_janprof.bin',
(PID.TID 0000.0001) ># tracer 84 - PHY63
(PID.TID 0000.0001) > PTRACERS_names(84)='Phy63',
(PID.TID 0000.0001) > PTRACERS_units(84)='mmol P/m^3'
(PID.TID 0000.0001) > PTRACERS_advScheme(84)=33,
(PID.TID 0000.0001) > PTRACERS_diffKh(84)=0.E3,
(PID.TID 0000.0001) > PTRACERS_diffKr(84)=1.E-5,
(PID.TID 0000.0001) > PTRACERS_useGMRedi(84)=.FALSE. ,
(PID.TID 0000.0001) > PTRACERS_useKPP(84)=.FALSE.  ,
(PID.TID 0000.0001) > PTRACERS_initialFile(84)='../input/input/loc1_biomass_run83_janprof.bin',
(PID.TID 0000.0001) ># tracer 85 - PHY64
(PID.TID 0000.0001) > PTRACERS_names(85)='Phy64',
(PID.TID 0000.0001) > PTRACERS_units(85)='mmol P/m^3'
(PID.TID 0000.0001) > PTRACERS_advScheme(85)=33,
(PID.TID 0000.0001) > PTRACERS_diffKh(85)=0.E3,
(PID.TID 0000.0001) > PTRACERS_diffKr(85)=1.E-5,
(PID.TID 0000.0001) > PTRACERS_useGMRedi(85)=.FALSE. ,
(PID.TID 0000.0001) > PTRACERS_useKPP(85)=.FALSE.  ,
(PID.TID 0000.0001) > PTRACERS_initialFile(85)='../input/input/loc1_biomass_run83_janprof.bin',
(PID.TID 0000.0001) ># tracer 86 - PHY65
(PID.TID 0000.0001) > PTRACERS_names(86)='Phy65',
(PID.TID 0000.0001) > PTRACERS_units(86)='mmol P/m^3'
(PID.TID 0000.0001) > PTRACERS_advScheme(86)=33,
(PID.TID 0000.0001) > PTRACERS_diffKh(86)=0.E3,
(PID.TID 0000.0001) > PTRACERS_diffKr(86)=1.E-5,
(PID.TID 0000.0001) > PTRACERS_useGMRedi(86)=.FALSE. ,
(PID.TID 0000.0001) > PTRACERS_useKPP(86)=.FALSE.  ,
(PID.TID 0000.0001) > PTRACERS_initialFile(86)='../input/input/loc1_biomass_run83_janprof.bin',
(PID.TID 0000.0001) ># tracer 87 - PHY66
(PID.TID 0000.0001) > PTRACERS_names(87)='Phy66',
(PID.TID 0000.0001) > PTRACERS_units(87)='mmol P/m^3'
(PID.TID 0000.0001) > PTRACERS_advScheme(87)=33,
(PID.TID 0000.0001) > PTRACERS_diffKh(87)=0.E3,
(PID.TID 0000.0001) > PTRACERS_diffKr(87)=1.E-5,
(PID.TID 0000.0001) > PTRACERS_useGMRedi(87)=.FALSE. ,
(PID.TID 0000.0001) > PTRACERS_useKPP(87)=.FALSE.  ,
(PID.TID 0000.0001) > PTRACERS_initialFile(87)='../input/input/loc1_biomass_run83_janprof.bin',
(PID.TID 0000.0001) ># tracer 88 - PHY67
(PID.TID 0000.0001) > PTRACERS_names(88)='Phy67',
(PID.TID 0000.0001) > PTRACERS_units(88)='mmol P/m^3'
(PID.TID 0000.0001) > PTRACERS_advScheme(88)=33,
(PID.TID 0000.0001) > PTRACERS_diffKh(88)=0.E3,
(PID.TID 0000.0001) > PTRACERS_diffKr(88)=1.E-5,
(PID.TID 0000.0001) > PTRACERS_useGMRedi(88)=.FALSE. ,
(PID.TID 0000.0001) > PTRACERS_useKPP(88)=.FALSE.  ,
(PID.TID 0000.0001) > PTRACERS_initialFile(88)='../input/input/loc1_biomass_run83_janprof.bin',
(PID.TID 0000.0001) ># tracer 89 - PHY68
(PID.TID 0000.0001) > PTRACERS_names(89)='Phy68',
(PID.TID 0000.0001) > PTRACERS_units(89)='mmol P/m^3'
(PID.TID 0000.0001) > PTRACERS_advScheme(89)=33,
(PID.TID 0000.0001) > PTRACERS_diffKh(89)=0.E3,
(PID.TID 0000.0001) > PTRACERS_diffKr(89)=1.E-5,
(PID.TID 0000.0001) > PTRACERS_useGMRedi(89)=.FALSE. ,
(PID.TID 0000.0001) > PTRACERS_useKPP(89)=.FALSE.  ,
(PID.TID 0000.0001) > PTRACERS_initialFile(89)='../input/input/loc1_biomass_run83_janprof.bin',
(PID.TID 0000.0001) ># tracer 90 - PHY69
(PID.TID 0000.0001) > PTRACERS_names(90)='Phy69',
(PID.TID 0000.0001) > PTRACERS_units(90)='mmol P/m^3'
(PID.TID 0000.0001) > PTRACERS_advScheme(90)=33,
(PID.TID 0000.0001) > PTRACERS_diffKh(90)=0.E3,
(PID.TID 0000.0001) > PTRACERS_diffKr(90)=1.E-5,
(PID.TID 0000.0001) > PTRACERS_useGMRedi(90)=.FALSE. ,
(PID.TID 0000.0001) > PTRACERS_useKPP(90)=.FALSE.  ,
(PID.TID 0000.0001) > PTRACERS_initialFile(90)='../input/input/loc1_biomass_run83_janprof.bin',
(PID.TID 0000.0001) ># tracer 91 - PHY70
(PID.TID 0000.0001) > PTRACERS_names(91)='Phy70',
(PID.TID 0000.0001) > PTRACERS_units(91)='mmol P/m^3'
(PID.TID 0000.0001) > PTRACERS_advScheme(91)=33,
(PID.TID 0000.0001) > PTRACERS_diffKh(91)=0.E3,
(PID.TID 0000.0001) > PTRACERS_diffKr(91)=1.E-5,
(PID.TID 0000.0001) > PTRACERS_useGMRedi(91)=.FALSE. ,
(PID.TID 0000.0001) > PTRACERS_useKPP(91)=.FALSE.  ,
(PID.TID 0000.0001) > PTRACERS_initialFile(91)='../input/input/loc1_biomass_run83_janprof.bin',
(PID.TID 0000.0001) ># tracer 92 - PHY71
(PID.TID 0000.0001) > PTRACERS_names(92)='Phy71',
(PID.TID 0000.0001) > PTRACERS_units(92)='mmol P/m^3'
(PID.TID 0000.0001) > PTRACERS_advScheme(92)=33,
(PID.TID 0000.0001) > PTRACERS_diffKh(92)=0.E3,
(PID.TID 0000.0001) > PTRACERS_diffKr(92)=1.E-5,
(PID.TID 0000.0001) > PTRACERS_useGMRedi(92)=.FALSE. ,
(PID.TID 0000.0001) > PTRACERS_useKPP(92)=.FALSE.  ,
(PID.TID 0000.0001) > PTRACERS_initialFile(92)='../input/input/loc1_biomass_run83_janprof.bin',
(PID.TID 0000.0001) ># tracer 93 - PHY72
(PID.TID 0000.0001) > PTRACERS_names(93)='Phy72',
(PID.TID 0000.0001) > PTRACERS_units(93)='mmol P/m^3'
(PID.TID 0000.0001) > PTRACERS_advScheme(93)=33,
(PID.TID 0000.0001) > PTRACERS_diffKh(93)=0.E3,
(PID.TID 0000.0001) > PTRACERS_diffKr(93)=1.E-5,
(PID.TID 0000.0001) > PTRACERS_useGMRedi(93)=.FALSE. ,
(PID.TID 0000.0001) > PTRACERS_useKPP(93)=.FALSE.  ,
(PID.TID 0000.0001) > PTRACERS_initialFile(93)='../input/input/loc1_biomass_run83_janprof.bin',
(PID.TID 0000.0001) ># tracer 94 - PHY73
(PID.TID 0000.0001) > PTRACERS_names(94)='Phy73',
(PID.TID 0000.0001) > PTRACERS_units(94)='mmol P/m^3'
(PID.TID 0000.0001) > PTRACERS_advScheme(94)=33,
(PID.TID 0000.0001) > PTRACERS_diffKh(94)=0.E3,
(PID.TID 0000.0001) > PTRACERS_diffKr(94)=1.E-5,
(PID.TID 0000.0001) > PTRACERS_useGMRedi(94)=.FALSE. ,
(PID.TID 0000.0001) > PTRACERS_useKPP(94)=.FALSE.  ,
(PID.TID 0000.0001) > PTRACERS_initialFile(94)='../input/input/loc1_biomass_run83_janprof.bin',
(PID.TID 0000.0001) ># tracer 95 - PHY74
(PID.TID 0000.0001) > PTRACERS_names(95)='Phy74',
(PID.TID 0000.0001) > PTRACERS_units(95)='mmol P/m^3'
(PID.TID 0000.0001) > PTRACERS_advScheme(95)=33,
(PID.TID 0000.0001) > PTRACERS_diffKh(95)=0.E3,
(PID.TID 0000.0001) > PTRACERS_diffKr(95)=1.E-5,
(PID.TID 0000.0001) > PTRACERS_useGMRedi(95)=.FALSE. ,
(PID.TID 0000.0001) > PTRACERS_useKPP(95)=.FALSE.  ,
(PID.TID 0000.0001) > PTRACERS_initialFile(95)='../input/input/loc1_biomass_run83_janprof.bin',
(PID.TID 0000.0001) ># tracer 96 - PHY75
(PID.TID 0000.0001) > PTRACERS_names(96)='Phy75',
(PID.TID 0000.0001) > PTRACERS_units(96)='mmol P/m^3'
(PID.TID 0000.0001) > PTRACERS_advScheme(96)=33,
(PID.TID 0000.0001) > PTRACERS_diffKh(96)=0.E3,
(PID.TID 0000.0001) > PTRACERS_diffKr(96)=1.E-5,
(PID.TID 0000.0001) > PTRACERS_useGMRedi(96)=.FALSE. ,
(PID.TID 0000.0001) > PTRACERS_useKPP(96)=.FALSE.  ,
(PID.TID 0000.0001) > PTRACERS_initialFile(96)='../input/input/loc1_biomass_run83_janprof.bin',
(PID.TID 0000.0001) ># tracer 97 - PHY76
(PID.TID 0000.0001) > PTRACERS_names(97)='Phy76',
(PID.TID 0000.0001) > PTRACERS_units(97)='mmol P/m^3'
(PID.TID 0000.0001) > PTRACERS_advScheme(97)=33,
(PID.TID 0000.0001) > PTRACERS_diffKh(97)=0.E3,
(PID.TID 0000.0001) > PTRACERS_diffKr(97)=1.E-5,
(PID.TID 0000.0001) > PTRACERS_useGMRedi(97)=.FALSE. ,
(PID.TID 0000.0001) > PTRACERS_useKPP(97)=.FALSE.  ,
(PID.TID 0000.0001) > PTRACERS_initialFile(97)='../input/input/loc1_biomass_run83_janprof.bin',
(PID.TID 0000.0001) ># tracer 98 - PHY77
(PID.TID 0000.0001) > PTRACERS_names(98)='Phy77',
(PID.TID 0000.0001) > PTRACERS_units(98)='mmol P/m^3'
(PID.TID 0000.0001) > PTRACERS_advScheme(98)=33,
(PID.TID 0000.0001) > PTRACERS_diffKh(98)=0.E3,
(PID.TID 0000.0001) > PTRACERS_diffKr(98)=1.E-5,
(PID.TID 0000.0001) > PTRACERS_useGMRedi(98)=.FALSE. ,
(PID.TID 0000.0001) > PTRACERS_useKPP(98)=.FALSE.  ,
(PID.TID 0000.0001) > PTRACERS_initialFile(98)='../input/input/loc1_biomass_run83_janprof.bin',
(PID.TID 0000.0001) ># tracer 99 - PHY78
(PID.TID 0000.0001) > PTRACERS_names(99)='Phy78',
(PID.TID 0000.0001) > PTRACERS_units(99)='mmol P/m^3'
(PID.TID 0000.0001) > PTRACERS_advScheme(99)=33,
(PID.TID 0000.0001) > PTRACERS_diffKh(99)=0.E3,
(PID.TID 0000.0001) > PTRACERS_diffKr(99)=1.E-5,
(PID.TID 0000.0001) > PTRACERS_useGMRedi(99)=.FALSE. ,
(PID.TID 0000.0001) > PTRACERS_useKPP(99)=.FALSE.  ,
(PID.TID 0000.0001) > PTRACERS_initialFile(99)='../input/input/loc1_biomass_run83_janprof.bin',
(PID.TID 0000.0001) > &
(PID.TID 0000.0001) 
(PID.TID 0000.0001)  PTRACERS_READPARMS: finished reading data.ptracers
(PID.TID 0000.0001) // ===================================
(PID.TID 0000.0001) // PTRACERS parameters
(PID.TID 0000.0001) // ===================================
(PID.TID 0000.0001) PTRACERS_numInUse = /* number of tracers */
(PID.TID 0000.0001)                      99
(PID.TID 0000.0001)     ;
(PID.TID 0000.0001) PTRACERS_Iter0 = /* timestep number when tracers are initialized */
(PID.TID 0000.0001)                       0
(PID.TID 0000.0001)     ;
(PID.TID 0000.0001) PTRACERS_dumpFreq = /* Frequency^-1 for snapshot output (s) */
(PID.TID 0000.0001)                 3.110400000000000E+07
(PID.TID 0000.0001)     ;
(PID.TID 0000.0001) PTRACERS_taveFreq = /* Frequency^-1 for time-Aver. output (s) */
(PID.TID 0000.0001)                 2.592000000000000E+06
(PID.TID 0000.0001)     ;
(PID.TID 0000.0001) PTRACERS_useRecords = /* all tracers in 1 file */
(PID.TID 0000.0001)                   F
(PID.TID 0000.0001)     ;
(PID.TID 0000.0001) PTRACERS_timeave_mnc = /* use MNC for Tave output */
(PID.TID 0000.0001)                   T
(PID.TID 0000.0001)     ;
(PID.TID 0000.0001) PTRACERS_snapshot_mnc = /* use MNC for snapshot output */
(PID.TID 0000.0001)                   T
(PID.TID 0000.0001)     ;
(PID.TID 0000.0001) PTRACERS_pickup_write_mnc = /* use MNC for writing pickups */
(PID.TID 0000.0001)                   F
(PID.TID 0000.0001)     ;
(PID.TID 0000.0001) PTRACERS_pickup_read_mnc = /* use MNC for reading pickups */
(PID.TID 0000.0001)                   F
(PID.TID 0000.0001)     ;
(PID.TID 0000.0001)  -----------------------------------
(PID.TID 0000.0001)  tracer number :    1
(PID.TID 0000.0001) PTRACERS_ioLabel = /* tracer IO Label */
(PID.TID 0000.0001)               '01'
(PID.TID 0000.0001)     ;
(PID.TID 0000.0001) PTRACERS_advScheme = /* Advection Scheme */
(PID.TID 0000.0001)                      33
(PID.TID 0000.0001)     ;
(PID.TID 0000.0001) PTRACERS_ImplVertAdv = /* implicit vert. advection flag */
(PID.TID 0000.0001)                   F
(PID.TID 0000.0001)     ;
(PID.TID 0000.0001) PTRACERS_diffKh = /* Laplacian Diffusivity */
(PID.TID 0000.0001)                 0.000000000000000E+00
(PID.TID 0000.0001)     ;
(PID.TID 0000.0001) PTRACERS_diffK4 = /* Biharmonic Diffusivity */
(PID.TID 0000.0001)                 0.000000000000000E+00
(PID.TID 0000.0001)     ;
(PID.TID 0000.0001) PTRACERS_diffKrNr = /* Vertical Diffusivity */
(PID.TID 0000.0001)    35 @  1.000000000000000E-05              /* K =  1: 35 */
(PID.TID 0000.0001)     ;
(PID.TID 0000.0001) PTRACERS_useGMRedi = /* apply GM-Redi */
(PID.TID 0000.0001)                   F
(PID.TID 0000.0001)     ;
(PID.TID 0000.0001) PTRACERS_useKPP = /* apply KPP scheme */
(PID.TID 0000.0001)                   F
(PID.TID 0000.0001)     ;
(PID.TID 0000.0001) PTRACERS_ref = /* Reference vertical profile */
(PID.TID 0000.0001)    35 @  0.000000000000000E+00              /* K =  1: 35 */
(PID.TID 0000.0001)     ;
(PID.TID 0000.0001) PTRACERS_EvPrRn =/* tracer conc. in Evap. & Rain */
(PID.TID 0000.0001)                 1.234567000000000E+05
(PID.TID 0000.0001)     ;
(PID.TID 0000.0001)  -----------------------------------
(PID.TID 0000.0001)  tracer number :    2
(PID.TID 0000.0001) PTRACERS_ioLabel = /* tracer IO Label */
(PID.TID 0000.0001)               '02'
(PID.TID 0000.0001)     ;
(PID.TID 0000.0001) PTRACERS_advScheme = /* Advection Scheme */
(PID.TID 0000.0001)                      33
(PID.TID 0000.0001)     ;
(PID.TID 0000.0001) PTRACERS_ImplVertAdv = /* implicit vert. advection flag */
(PID.TID 0000.0001)                   F
(PID.TID 0000.0001)     ;
(PID.TID 0000.0001) PTRACERS_diffKh = /* Laplacian Diffusivity */
(PID.TID 0000.0001)                 0.000000000000000E+00
(PID.TID 0000.0001)     ;
(PID.TID 0000.0001) PTRACERS_diffK4 = /* Biharmonic Diffusivity */
(PID.TID 0000.0001)                 0.000000000000000E+00
(PID.TID 0000.0001)     ;
(PID.TID 0000.0001) PTRACERS_diffKrNr = /* Vertical Diffusivity */
(PID.TID 0000.0001)    35 @  1.000000000000000E-05              /* K =  1: 35 */
(PID.TID 0000.0001)     ;
(PID.TID 0000.0001) PTRACERS_useGMRedi = /* apply GM-Redi */
(PID.TID 0000.0001)                   F
(PID.TID 0000.0001)     ;
(PID.TID 0000.0001) PTRACERS_useKPP = /* apply KPP scheme */
(PID.TID 0000.0001)                   F
(PID.TID 0000.0001)     ;
(PID.TID 0000.0001) PTRACERS_ref = /* Reference vertical profile */
(PID.TID 0000.0001)    35 @  0.000000000000000E+00              /* K =  1: 35 */
(PID.TID 0000.0001)     ;
(PID.TID 0000.0001) PTRACERS_EvPrRn =/* tracer conc. in Evap. & Rain */
(PID.TID 0000.0001)                 1.234567000000000E+05
(PID.TID 0000.0001)     ;
(PID.TID 0000.0001)  -----------------------------------
(PID.TID 0000.0001)  tracer number :    3
(PID.TID 0000.0001) PTRACERS_ioLabel = /* tracer IO Label */
(PID.TID 0000.0001)               '03'
(PID.TID 0000.0001)     ;
(PID.TID 0000.0001) PTRACERS_advScheme = /* Advection Scheme */
(PID.TID 0000.0001)                      33
(PID.TID 0000.0001)     ;
(PID.TID 0000.0001) PTRACERS_ImplVertAdv = /* implicit vert. advection flag */
(PID.TID 0000.0001)                   F
(PID.TID 0000.0001)     ;
(PID.TID 0000.0001) PTRACERS_diffKh = /* Laplacian Diffusivity */
(PID.TID 0000.0001)                 0.000000000000000E+00
(PID.TID 0000.0001)     ;
(PID.TID 0000.0001) PTRACERS_diffK4 = /* Biharmonic Diffusivity */
(PID.TID 0000.0001)                 0.000000000000000E+00
(PID.TID 0000.0001)     ;
(PID.TID 0000.0001) PTRACERS_diffKrNr = /* Vertical Diffusivity */
(PID.TID 0000.0001)    35 @  1.000000000000000E-05              /* K =  1: 35 */
(PID.TID 0000.0001)     ;
(PID.TID 0000.0001) PTRACERS_useGMRedi = /* apply GM-Redi */
(PID.TID 0000.0001)                   F
(PID.TID 0000.0001)     ;
(PID.TID 0000.0001) PTRACERS_useKPP = /* apply KPP scheme */
(PID.TID 0000.0001)                   F
(PID.TID 0000.0001)     ;
(PID.TID 0000.0001) PTRACERS_ref = /* Reference vertical profile */
(PID.TID 0000.0001)    35 @  0.000000000000000E+00              /* K =  1: 35 */
(PID.TID 0000.0001)     ;
(PID.TID 0000.0001) PTRACERS_EvPrRn =/* tracer conc. in Evap. & Rain */
(PID.TID 0000.0001)                 1.234567000000000E+05
(PID.TID 0000.0001)     ;
(PID.TID 0000.0001)  -----------------------------------
(PID.TID 0000.0001)  tracer number :    4
(PID.TID 0000.0001) PTRACERS_ioLabel = /* tracer IO Label */
(PID.TID 0000.0001)               '04'
(PID.TID 0000.0001)     ;
(PID.TID 0000.0001) PTRACERS_advScheme = /* Advection Scheme */
(PID.TID 0000.0001)                      33
(PID.TID 0000.0001)     ;
(PID.TID 0000.0001) PTRACERS_ImplVertAdv = /* implicit vert. advection flag */
(PID.TID 0000.0001)                   F
(PID.TID 0000.0001)     ;
(PID.TID 0000.0001) PTRACERS_diffKh = /* Laplacian Diffusivity */
(PID.TID 0000.0001)                 0.000000000000000E+00
(PID.TID 0000.0001)     ;
(PID.TID 0000.0001) PTRACERS_diffK4 = /* Biharmonic Diffusivity */
(PID.TID 0000.0001)                 0.000000000000000E+00
(PID.TID 0000.0001)     ;
(PID.TID 0000.0001) PTRACERS_diffKrNr = /* Vertical Diffusivity */
(PID.TID 0000.0001)    35 @  1.000000000000000E-05              /* K =  1: 35 */
(PID.TID 0000.0001)     ;
(PID.TID 0000.0001) PTRACERS_useGMRedi = /* apply GM-Redi */
(PID.TID 0000.0001)                   F
(PID.TID 0000.0001)     ;
(PID.TID 0000.0001) PTRACERS_useKPP = /* apply KPP scheme */
(PID.TID 0000.0001)                   F
(PID.TID 0000.0001)     ;
(PID.TID 0000.0001) PTRACERS_ref = /* Reference vertical profile */
(PID.TID 0000.0001)    35 @  0.000000000000000E+00              /* K =  1: 35 */
(PID.TID 0000.0001)     ;
(PID.TID 0000.0001) PTRACERS_EvPrRn =/* tracer conc. in Evap. & Rain */
(PID.TID 0000.0001)                 1.234567000000000E+05
(PID.TID 0000.0001)     ;
(PID.TID 0000.0001)  -----------------------------------
(PID.TID 0000.0001)  tracer number :    5
(PID.TID 0000.0001) PTRACERS_ioLabel = /* tracer IO Label */
(PID.TID 0000.0001)               '05'
(PID.TID 0000.0001)     ;
(PID.TID 0000.0001) PTRACERS_advScheme = /* Advection Scheme */
(PID.TID 0000.0001)                      33
(PID.TID 0000.0001)     ;
(PID.TID 0000.0001) PTRACERS_ImplVertAdv = /* implicit vert. advection flag */
(PID.TID 0000.0001)                   F
(PID.TID 0000.0001)     ;
(PID.TID 0000.0001) PTRACERS_diffKh = /* Laplacian Diffusivity */
(PID.TID 0000.0001)                 0.000000000000000E+00
(PID.TID 0000.0001)     ;
(PID.TID 0000.0001) PTRACERS_diffK4 = /* Biharmonic Diffusivity */
(PID.TID 0000.0001)                 0.000000000000000E+00
(PID.TID 0000.0001)     ;
(PID.TID 0000.0001) PTRACERS_diffKrNr = /* Vertical Diffusivity */
(PID.TID 0000.0001)    35 @  1.000000000000000E-05              /* K =  1: 35 */
(PID.TID 0000.0001)     ;
(PID.TID 0000.0001) PTRACERS_useGMRedi = /* apply GM-Redi */
(PID.TID 0000.0001)                   F
(PID.TID 0000.0001)     ;
(PID.TID 0000.0001) PTRACERS_useKPP = /* apply KPP scheme */
(PID.TID 0000.0001)                   F
(PID.TID 0000.0001)     ;
(PID.TID 0000.0001) PTRACERS_ref = /* Reference vertical profile */
(PID.TID 0000.0001)    35 @  0.000000000000000E+00              /* K =  1: 35 */
(PID.TID 0000.0001)     ;
(PID.TID 0000.0001) PTRACERS_EvPrRn =/* tracer conc. in Evap. & Rain */
(PID.TID 0000.0001)                 1.234567000000000E+05
(PID.TID 0000.0001)     ;
(PID.TID 0000.0001)  -----------------------------------
(PID.TID 0000.0001)  tracer number :    6
(PID.TID 0000.0001) PTRACERS_ioLabel = /* tracer IO Label */
(PID.TID 0000.0001)               '06'
(PID.TID 0000.0001)     ;
(PID.TID 0000.0001) PTRACERS_advScheme = /* Advection Scheme */
(PID.TID 0000.0001)                      33
(PID.TID 0000.0001)     ;
(PID.TID 0000.0001) PTRACERS_ImplVertAdv = /* implicit vert. advection flag */
(PID.TID 0000.0001)                   F
(PID.TID 0000.0001)     ;
(PID.TID 0000.0001) PTRACERS_diffKh = /* Laplacian Diffusivity */
(PID.TID 0000.0001)                 0.000000000000000E+00
(PID.TID 0000.0001)     ;
(PID.TID 0000.0001) PTRACERS_diffK4 = /* Biharmonic Diffusivity */
(PID.TID 0000.0001)                 0.000000000000000E+00
(PID.TID 0000.0001)     ;
(PID.TID 0000.0001) PTRACERS_diffKrNr = /* Vertical Diffusivity */
(PID.TID 0000.0001)    35 @  1.000000000000000E-05              /* K =  1: 35 */
(PID.TID 0000.0001)     ;
(PID.TID 0000.0001) PTRACERS_useGMRedi = /* apply GM-Redi */
(PID.TID 0000.0001)                   F
(PID.TID 0000.0001)     ;
(PID.TID 0000.0001) PTRACERS_useKPP = /* apply KPP scheme */
(PID.TID 0000.0001)                   F
(PID.TID 0000.0001)     ;
(PID.TID 0000.0001) PTRACERS_ref = /* Reference vertical profile */
(PID.TID 0000.0001)    35 @  0.000000000000000E+00              /* K =  1: 35 */
(PID.TID 0000.0001)     ;
(PID.TID 0000.0001) PTRACERS_EvPrRn =/* tracer conc. in Evap. & Rain */
(PID.TID 0000.0001)                 1.234567000000000E+05
(PID.TID 0000.0001)     ;
(PID.TID 0000.0001)  -----------------------------------
(PID.TID 0000.0001)  tracer number :    7
(PID.TID 0000.0001) PTRACERS_ioLabel = /* tracer IO Label */
(PID.TID 0000.0001)               '07'
(PID.TID 0000.0001)     ;
(PID.TID 0000.0001) PTRACERS_advScheme = /* Advection Scheme */
(PID.TID 0000.0001)                      33
(PID.TID 0000.0001)     ;
(PID.TID 0000.0001) PTRACERS_ImplVertAdv = /* implicit vert. advection flag */
(PID.TID 0000.0001)                   F
(PID.TID 0000.0001)     ;
(PID.TID 0000.0001) PTRACERS_diffKh = /* Laplacian Diffusivity */
(PID.TID 0000.0001)                 0.000000000000000E+00
(PID.TID 0000.0001)     ;
(PID.TID 0000.0001) PTRACERS_diffK4 = /* Biharmonic Diffusivity */
(PID.TID 0000.0001)                 0.000000000000000E+00
(PID.TID 0000.0001)     ;
(PID.TID 0000.0001) PTRACERS_diffKrNr = /* Vertical Diffusivity */
(PID.TID 0000.0001)    35 @  1.000000000000000E-05              /* K =  1: 35 */
(PID.TID 0000.0001)     ;
(PID.TID 0000.0001) PTRACERS_useGMRedi = /* apply GM-Redi */
(PID.TID 0000.0001)                   F
(PID.TID 0000.0001)     ;
(PID.TID 0000.0001) PTRACERS_useKPP = /* apply KPP scheme */
(PID.TID 0000.0001)                   F
(PID.TID 0000.0001)     ;
(PID.TID 0000.0001) PTRACERS_ref = /* Reference vertical profile */
(PID.TID 0000.0001)    35 @  0.000000000000000E+00              /* K =  1: 35 */
(PID.TID 0000.0001)     ;
(PID.TID 0000.0001) PTRACERS_EvPrRn =/* tracer conc. in Evap. & Rain */
(PID.TID 0000.0001)                 1.234567000000000E+05
(PID.TID 0000.0001)     ;
(PID.TID 0000.0001)  -----------------------------------
(PID.TID 0000.0001)  tracer number :    8
(PID.TID 0000.0001) PTRACERS_ioLabel = /* tracer IO Label */
(PID.TID 0000.0001)               '08'
(PID.TID 0000.0001)     ;
(PID.TID 0000.0001) PTRACERS_advScheme = /* Advection Scheme */
(PID.TID 0000.0001)                      33
(PID.TID 0000.0001)     ;
(PID.TID 0000.0001) PTRACERS_ImplVertAdv = /* implicit vert. advection flag */
(PID.TID 0000.0001)                   F
(PID.TID 0000.0001)     ;
(PID.TID 0000.0001) PTRACERS_diffKh = /* Laplacian Diffusivity */
(PID.TID 0000.0001)                 0.000000000000000E+00
(PID.TID 0000.0001)     ;
(PID.TID 0000.0001) PTRACERS_diffK4 = /* Biharmonic Diffusivity */
(PID.TID 0000.0001)                 0.000000000000000E+00
(PID.TID 0000.0001)     ;
(PID.TID 0000.0001) PTRACERS_diffKrNr = /* Vertical Diffusivity */
(PID.TID 0000.0001)    35 @  1.000000000000000E-05              /* K =  1: 35 */
(PID.TID 0000.0001)     ;
(PID.TID 0000.0001) PTRACERS_useGMRedi = /* apply GM-Redi */
(PID.TID 0000.0001)                   F
(PID.TID 0000.0001)     ;
(PID.TID 0000.0001) PTRACERS_useKPP = /* apply KPP scheme */
(PID.TID 0000.0001)                   F
(PID.TID 0000.0001)     ;
(PID.TID 0000.0001) PTRACERS_ref = /* Reference vertical profile */
(PID.TID 0000.0001)    35 @  0.000000000000000E+00              /* K =  1: 35 */
(PID.TID 0000.0001)     ;
(PID.TID 0000.0001) PTRACERS_EvPrRn =/* tracer conc. in Evap. & Rain */
(PID.TID 0000.0001)                 1.234567000000000E+05
(PID.TID 0000.0001)     ;
(PID.TID 0000.0001)  -----------------------------------
(PID.TID 0000.0001)  tracer number :    9
(PID.TID 0000.0001) PTRACERS_ioLabel = /* tracer IO Label */
(PID.TID 0000.0001)               '09'
(PID.TID 0000.0001)     ;
(PID.TID 0000.0001) PTRACERS_advScheme = /* Advection Scheme */
(PID.TID 0000.0001)                      33
(PID.TID 0000.0001)     ;
(PID.TID 0000.0001) PTRACERS_ImplVertAdv = /* implicit vert. advection flag */
(PID.TID 0000.0001)                   F
(PID.TID 0000.0001)     ;
(PID.TID 0000.0001) PTRACERS_diffKh = /* Laplacian Diffusivity */
(PID.TID 0000.0001)                 0.000000000000000E+00
(PID.TID 0000.0001)     ;
(PID.TID 0000.0001) PTRACERS_diffK4 = /* Biharmonic Diffusivity */
(PID.TID 0000.0001)                 0.000000000000000E+00
(PID.TID 0000.0001)     ;
(PID.TID 0000.0001) PTRACERS_diffKrNr = /* Vertical Diffusivity */
(PID.TID 0000.0001)    35 @  1.000000000000000E-05              /* K =  1: 35 */
(PID.TID 0000.0001)     ;
(PID.TID 0000.0001) PTRACERS_useGMRedi = /* apply GM-Redi */
(PID.TID 0000.0001)                   F
(PID.TID 0000.0001)     ;
(PID.TID 0000.0001) PTRACERS_useKPP = /* apply KPP scheme */
(PID.TID 0000.0001)                   F
(PID.TID 0000.0001)     ;
(PID.TID 0000.0001) PTRACERS_ref = /* Reference vertical profile */
(PID.TID 0000.0001)    35 @  0.000000000000000E+00              /* K =  1: 35 */
(PID.TID 0000.0001)     ;
(PID.TID 0000.0001) PTRACERS_EvPrRn =/* tracer conc. in Evap. & Rain */
(PID.TID 0000.0001)                 1.234567000000000E+05
(PID.TID 0000.0001)     ;
(PID.TID 0000.0001)  -----------------------------------
(PID.TID 0000.0001)  tracer number :   10
(PID.TID 0000.0001) PTRACERS_ioLabel = /* tracer IO Label */
(PID.TID 0000.0001)               '10'
(PID.TID 0000.0001)     ;
(PID.TID 0000.0001) PTRACERS_advScheme = /* Advection Scheme */
(PID.TID 0000.0001)                      33
(PID.TID 0000.0001)     ;
(PID.TID 0000.0001) PTRACERS_ImplVertAdv = /* implicit vert. advection flag */
(PID.TID 0000.0001)                   F
(PID.TID 0000.0001)     ;
(PID.TID 0000.0001) PTRACERS_diffKh = /* Laplacian Diffusivity */
(PID.TID 0000.0001)                 0.000000000000000E+00
(PID.TID 0000.0001)     ;
(PID.TID 0000.0001) PTRACERS_diffK4 = /* Biharmonic Diffusivity */
(PID.TID 0000.0001)                 0.000000000000000E+00
(PID.TID 0000.0001)     ;
(PID.TID 0000.0001) PTRACERS_diffKrNr = /* Vertical Diffusivity */
(PID.TID 0000.0001)    35 @  1.000000000000000E-05              /* K =  1: 35 */
(PID.TID 0000.0001)     ;
(PID.TID 0000.0001) PTRACERS_useGMRedi = /* apply GM-Redi */
(PID.TID 0000.0001)                   F
(PID.TID 0000.0001)     ;
(PID.TID 0000.0001) PTRACERS_useKPP = /* apply KPP scheme */
(PID.TID 0000.0001)                   F
(PID.TID 0000.0001)     ;
(PID.TID 0000.0001) PTRACERS_ref = /* Reference vertical profile */
(PID.TID 0000.0001)    35 @  0.000000000000000E+00              /* K =  1: 35 */
(PID.TID 0000.0001)     ;
(PID.TID 0000.0001) PTRACERS_EvPrRn =/* tracer conc. in Evap. & Rain */
(PID.TID 0000.0001)                 1.234567000000000E+05
(PID.TID 0000.0001)     ;
(PID.TID 0000.0001)  -----------------------------------
(PID.TID 0000.0001)  tracer number :   11
(PID.TID 0000.0001) PTRACERS_ioLabel = /* tracer IO Label */
(PID.TID 0000.0001)               '11'
(PID.TID 0000.0001)     ;
(PID.TID 0000.0001) PTRACERS_advScheme = /* Advection Scheme */
(PID.TID 0000.0001)                      33
(PID.TID 0000.0001)     ;
(PID.TID 0000.0001) PTRACERS_ImplVertAdv = /* implicit vert. advection flag */
(PID.TID 0000.0001)                   F
(PID.TID 0000.0001)     ;
(PID.TID 0000.0001) PTRACERS_diffKh = /* Laplacian Diffusivity */
(PID.TID 0000.0001)                 0.000000000000000E+00
(PID.TID 0000.0001)     ;
(PID.TID 0000.0001) PTRACERS_diffK4 = /* Biharmonic Diffusivity */
(PID.TID 0000.0001)                 0.000000000000000E+00
(PID.TID 0000.0001)     ;
(PID.TID 0000.0001) PTRACERS_diffKrNr = /* Vertical Diffusivity */
(PID.TID 0000.0001)    35 @  1.000000000000000E-05              /* K =  1: 35 */
(PID.TID 0000.0001)     ;
(PID.TID 0000.0001) PTRACERS_useGMRedi = /* apply GM-Redi */
(PID.TID 0000.0001)                   F
(PID.TID 0000.0001)     ;
(PID.TID 0000.0001) PTRACERS_useKPP = /* apply KPP scheme */
(PID.TID 0000.0001)                   F
(PID.TID 0000.0001)     ;
(PID.TID 0000.0001) PTRACERS_ref = /* Reference vertical profile */
(PID.TID 0000.0001)    35 @  0.000000000000000E+00              /* K =  1: 35 */
(PID.TID 0000.0001)     ;
(PID.TID 0000.0001) PTRACERS_EvPrRn =/* tracer conc. in Evap. & Rain */
(PID.TID 0000.0001)                 1.234567000000000E+05
(PID.TID 0000.0001)     ;
(PID.TID 0000.0001)  -----------------------------------
(PID.TID 0000.0001)  tracer number :   12
(PID.TID 0000.0001) PTRACERS_ioLabel = /* tracer IO Label */
(PID.TID 0000.0001)               '12'
(PID.TID 0000.0001)     ;
(PID.TID 0000.0001) PTRACERS_advScheme = /* Advection Scheme */
(PID.TID 0000.0001)                      33
[...]
(PID.TID 0000.0001) %MON trcstat_ptracer71_min        =   1.4160604848341E-29
(PID.TID 0000.0001) %MON trcstat_ptracer71_mean       =   2.1742650371863E-07
(PID.TID 0000.0001) %MON trcstat_ptracer71_sd         =   1.1379827398464E-06
(PID.TID 0000.0001) %MON trcstat_ptracer71_del2       =   0.0000000000000E+00
(PID.TID 0000.0001) %MON trcstat_ptracer72_max        =   7.2236554220362E-06
(PID.TID 0000.0001) %MON trcstat_ptracer72_min        =   1.4160604848341E-29
(PID.TID 0000.0001) %MON trcstat_ptracer72_mean       =   2.1541290472971E-07
(PID.TID 0000.0001) %MON trcstat_ptracer72_sd         =   1.1287740039798E-06
(PID.TID 0000.0001) %MON trcstat_ptracer72_del2       =   0.0000000000000E+00
(PID.TID 0000.0001) %MON trcstat_ptracer73_max        =   7.4094782926605E-06
(PID.TID 0000.0001) %MON trcstat_ptracer73_min        =   1.1449875060228E-37
(PID.TID 0000.0001) %MON trcstat_ptracer73_mean       =   2.2066573512299E-07
(PID.TID 0000.0001) %MON trcstat_ptracer73_sd         =   1.1583712295483E-06
(PID.TID 0000.0001) %MON trcstat_ptracer73_del2       =   0.0000000000000E+00
(PID.TID 0000.0001) %MON trcstat_ptracer74_max        =   7.5317076192712E-06
(PID.TID 0000.0001) %MON trcstat_ptracer74_min        =   1.4160604848341E-29
(PID.TID 0000.0001) %MON trcstat_ptracer74_mean       =   2.2340028896235E-07
(PID.TID 0000.0001) %MON trcstat_ptracer74_sd         =   1.1739834896038E-06
(PID.TID 0000.0001) %MON trcstat_ptracer74_del2       =   0.0000000000000E+00
(PID.TID 0000.0001) %MON trcstat_ptracer75_max        =   7.4526082163973E-06
(PID.TID 0000.0001) %MON trcstat_ptracer75_min        =   1.4160604848341E-29
(PID.TID 0000.0001) %MON trcstat_ptracer75_mean       =   2.2166447014310E-07
(PID.TID 0000.0001) %MON trcstat_ptracer75_sd         =   1.1630958639998E-06
(PID.TID 0000.0001) %MON trcstat_ptracer75_del2       =   0.0000000000000E+00
(PID.TID 0000.0001) %MON trcstat_ptracer76_max        =   7.2242642740643E-06
(PID.TID 0000.0001) %MON trcstat_ptracer76_min        =   1.1449875060228E-37
(PID.TID 0000.0001) %MON trcstat_ptracer76_mean       =   2.1543647668955E-07
(PID.TID 0000.0001) %MON trcstat_ptracer76_sd         =   1.1294047421912E-06
(PID.TID 0000.0001) %MON trcstat_ptracer76_del2       =   0.0000000000000E+00
(PID.TID 0000.0001) %MON trcstat_ptracer77_max        =   7.5106438732186E-06
(PID.TID 0000.0001) %MON trcstat_ptracer77_min        =   1.4160604848341E-29
(PID.TID 0000.0001) %MON trcstat_ptracer77_mean       =   2.2324068263089E-07
(PID.TID 0000.0001) %MON trcstat_ptracer77_sd         =   1.1717275024429E-06
(PID.TID 0000.0001) %MON trcstat_ptracer77_del2       =   0.0000000000000E+00
(PID.TID 0000.0001) %MON trcstat_ptracer78_max        =   7.3427994571222E-06
(PID.TID 0000.0001) %MON trcstat_ptracer78_min        =   1.4160604848341E-29
(PID.TID 0000.0001) %MON trcstat_ptracer78_mean       =   2.1933672855396E-07
(PID.TID 0000.0001) %MON trcstat_ptracer78_sd         =   1.1486853338644E-06
(PID.TID 0000.0001) %MON trcstat_ptracer78_del2       =   0.0000000000000E+00
(PID.TID 0000.0001) %MON trcstat_ptracer79_max        =   7.2242642740690E-06
(PID.TID 0000.0001) %MON trcstat_ptracer79_min        =   1.1449875060228E-37
(PID.TID 0000.0001) %MON trcstat_ptracer79_mean       =   2.1541290466738E-07
(PID.TID 0000.0001) %MON trcstat_ptracer79_sd         =   1.1293476836555E-06
(PID.TID 0000.0001) %MON trcstat_ptracer79_del2       =   0.0000000000000E+00
(PID.TID 0000.0001) %MON trcstat_ptracer80_max        =   7.4095331708766E-06
(PID.TID 0000.0001) %MON trcstat_ptracer80_min        =   1.1449875060228E-37
(PID.TID 0000.0001) %MON trcstat_ptracer80_mean       =   2.2045884278308E-07
(PID.TID 0000.0001) %MON trcstat_ptracer80_sd         =   1.1578943489081E-06
(PID.TID 0000.0001) %MON trcstat_ptracer80_del2       =   0.0000000000000E+00
(PID.TID 0000.0001) %MON trcstat_ptracer81_max        =   7.2242642740705E-06
(PID.TID 0000.0001) %MON trcstat_ptracer81_min        =   1.1449875060228E-37
(PID.TID 0000.0001) %MON trcstat_ptracer81_mean       =   2.1541290466742E-07
(PID.TID 0000.0001) %MON trcstat_ptracer81_sd         =   1.1293476836557E-06
(PID.TID 0000.0001) %MON trcstat_ptracer81_del2       =   0.0000000000000E+00
(PID.TID 0000.0001) %MON trcstat_ptracer82_max        =   7.2236554198047E-06
(PID.TID 0000.0001) %MON trcstat_ptracer82_min        =   1.4160604848341E-29
(PID.TID 0000.0001) %MON trcstat_ptracer82_mean       =   2.1541290466737E-07
(PID.TID 0000.0001) %MON trcstat_ptracer82_sd         =   1.1287740036442E-06
(PID.TID 0000.0001) %MON trcstat_ptracer82_del2       =   0.0000000000000E+00
(PID.TID 0000.0001) %MON trcstat_ptracer83_max        =   7.2236554220402E-06
(PID.TID 0000.0001) %MON trcstat_ptracer83_min        =   1.4160604848341E-29
(PID.TID 0000.0001) %MON trcstat_ptracer83_mean       =   2.1541290472983E-07
(PID.TID 0000.0001) %MON trcstat_ptracer83_sd         =   1.1287740039804E-06
(PID.TID 0000.0001) %MON trcstat_ptracer83_del2       =   0.0000000000000E+00
(PID.TID 0000.0001) %MON trcstat_ptracer84_max        =   7.2242642740637E-06
(PID.TID 0000.0001) %MON trcstat_ptracer84_min        =   1.1449875060228E-37
(PID.TID 0000.0001) %MON trcstat_ptracer84_mean       =   2.1544905005510E-07
(PID.TID 0000.0001) %MON trcstat_ptracer84_sd         =   1.1293899573658E-06
(PID.TID 0000.0001) %MON trcstat_ptracer84_del2       =   0.0000000000000E+00
(PID.TID 0000.0001) %MON trcstat_ptracer85_max        =   7.2242642740653E-06
(PID.TID 0000.0001) %MON trcstat_ptracer85_min        =   1.1449875060228E-37
(PID.TID 0000.0001) %MON trcstat_ptracer85_mean       =   2.1541290466728E-07
(PID.TID 0000.0001) %MON trcstat_ptracer85_sd         =   1.1293476836550E-06
(PID.TID 0000.0001) %MON trcstat_ptracer85_del2       =   0.0000000000000E+00
(PID.TID 0000.0001) %MON trcstat_ptracer86_max        =   7.2242642740681E-06
(PID.TID 0000.0001) %MON trcstat_ptracer86_min        =   1.1449875060228E-37
(PID.TID 0000.0001) %MON trcstat_ptracer86_mean       =   2.1541290466735E-07
(PID.TID 0000.0001) %MON trcstat_ptracer86_sd         =   1.1293476836553E-06
(PID.TID 0000.0001) %MON trcstat_ptracer86_del2       =   0.0000000000000E+00
(PID.TID 0000.0001) %MON trcstat_ptracer87_max        =   7.2236554198010E-06
(PID.TID 0000.0001) %MON trcstat_ptracer87_min        =   1.4160604848341E-29
(PID.TID 0000.0001) %MON trcstat_ptracer87_mean       =   2.1541290466726E-07
(PID.TID 0000.0001) %MON trcstat_ptracer87_sd         =   1.1287740036436E-06
(PID.TID 0000.0001) %MON trcstat_ptracer87_del2       =   0.0000000000000E+00
(PID.TID 0000.0001) %MON trcstat_ptracer88_max        =   7.2236554244188E-06
(PID.TID 0000.0001) %MON trcstat_ptracer88_min        =   1.4160604848341E-29
(PID.TID 0000.0001) %MON trcstat_ptracer88_mean       =   2.1591685588073E-07
(PID.TID 0000.0001) %MON trcstat_ptracer88_sd         =   1.1304087666729E-06
(PID.TID 0000.0001) %MON trcstat_ptracer88_del2       =   0.0000000000000E+00
(PID.TID 0000.0001) %MON trcstat_ptracer89_max        =   7.2236554198029E-06
(PID.TID 0000.0001) %MON trcstat_ptracer89_min        =   1.4160604848341E-29
(PID.TID 0000.0001) %MON trcstat_ptracer89_mean       =   2.1541466979067E-07
(PID.TID 0000.0001) %MON trcstat_ptracer89_sd         =   1.1287737764837E-06
(PID.TID 0000.0001) %MON trcstat_ptracer89_del2       =   0.0000000000000E+00
(PID.TID 0000.0001) %MON trcstat_ptracer90_max        =   7.2236554198006E-06
(PID.TID 0000.0001) %MON trcstat_ptracer90_min        =   1.4160604848341E-29
(PID.TID 0000.0001) %MON trcstat_ptracer90_mean       =   2.1541290466725E-07
(PID.TID 0000.0001) %MON trcstat_ptracer90_sd         =   1.1287740036435E-06
(PID.TID 0000.0001) %MON trcstat_ptracer90_del2       =   0.0000000000000E+00
(PID.TID 0000.0001) %MON trcstat_ptracer91_max        =   7.3663696095940E-06
(PID.TID 0000.0001) %MON trcstat_ptracer91_min        =   1.4160604848341E-29
(PID.TID 0000.0001) %MON trcstat_ptracer91_mean       =   2.1957313667197E-07
(PID.TID 0000.0001) %MON trcstat_ptracer91_sd         =   1.1508041030959E-06
(PID.TID 0000.0001) %MON trcstat_ptracer91_del2       =   0.0000000000000E+00
(PID.TID 0000.0001) %MON trcstat_ptracer92_max        =   7.4316047778264E-06
(PID.TID 0000.0001) %MON trcstat_ptracer92_min        =   1.1449875060228E-37
(PID.TID 0000.0001) %MON trcstat_ptracer92_mean       =   2.2083358174270E-07
(PID.TID 0000.0001) %MON trcstat_ptracer92_sd         =   1.1592795424268E-06
(PID.TID 0000.0001) %MON trcstat_ptracer92_del2       =   0.0000000000000E+00
(PID.TID 0000.0001) %MON trcstat_ptracer93_max        =   7.2242642740653E-06
(PID.TID 0000.0001) %MON trcstat_ptracer93_min        =   1.1449875060228E-37
(PID.TID 0000.0001) %MON trcstat_ptracer93_mean       =   2.1541290466727E-07
(PID.TID 0000.0001) %MON trcstat_ptracer93_sd         =   1.1293476836550E-06
(PID.TID 0000.0001) %MON trcstat_ptracer93_del2       =   0.0000000000000E+00
(PID.TID 0000.0001) %MON trcstat_ptracer94_max        =   7.2236554198010E-06
(PID.TID 0000.0001) %MON trcstat_ptracer94_min        =   1.4160604848341E-29
(PID.TID 0000.0001) %MON trcstat_ptracer94_mean       =   2.1541711139545E-07
(PID.TID 0000.0001) %MON trcstat_ptracer94_sd         =   1.1287736794423E-06
(PID.TID 0000.0001) %MON trcstat_ptracer94_del2       =   0.0000000000000E+00
(PID.TID 0000.0001) %MON trcstat_ptracer95_max        =   7.2242642740640E-06
(PID.TID 0000.0001) %MON trcstat_ptracer95_min        =   1.1449875060228E-37
(PID.TID 0000.0001) %MON trcstat_ptracer95_mean       =   2.1541459333153E-07
(PID.TID 0000.0001) %MON trcstat_ptracer95_sd         =   1.1293475175208E-06
(PID.TID 0000.0001) %MON trcstat_ptracer95_del2       =   0.0000000000000E+00
(PID.TID 0000.0001) %MON trcstat_ptracer96_max        =   7.4030666136230E-06
(PID.TID 0000.0001) %MON trcstat_ptracer96_min        =   1.1449875060228E-37
(PID.TID 0000.0001) %MON trcstat_ptracer96_mean       =   2.2065718504314E-07
(PID.TID 0000.0001) %MON trcstat_ptracer96_sd         =   1.1581651749291E-06
(PID.TID 0000.0001) %MON trcstat_ptracer96_del2       =   0.0000000000000E+00
(PID.TID 0000.0001) %MON trcstat_ptracer97_max        =   7.2242642740638E-06
(PID.TID 0000.0001) %MON trcstat_ptracer97_min        =   1.1449875060228E-37
(PID.TID 0000.0001) %MON trcstat_ptracer97_mean       =   2.1546997003867E-07
(PID.TID 0000.0001) %MON trcstat_ptracer97_sd         =   1.1294294407784E-06
(PID.TID 0000.0001) %MON trcstat_ptracer97_del2       =   0.0000000000000E+00
(PID.TID 0000.0001) %MON trcstat_ptracer98_max        =   7.4021889077488E-06
(PID.TID 0000.0001) %MON trcstat_ptracer98_min        =   1.1449875060228E-37
(PID.TID 0000.0001) %MON trcstat_ptracer98_mean       =   2.2033348060274E-07
(PID.TID 0000.0001) %MON trcstat_ptracer98_sd         =   1.1571701778018E-06
(PID.TID 0000.0001) %MON trcstat_ptracer98_del2       =   0.0000000000000E+00
(PID.TID 0000.0001) %MON trcstat_ptracer99_max        =   7.2242642740693E-06
(PID.TID 0000.0001) %MON trcstat_ptracer99_min        =   1.1449875060228E-37
(PID.TID 0000.0001) %MON trcstat_ptracer99_mean       =   2.1541290466739E-07
(PID.TID 0000.0001) %MON trcstat_ptracer99_sd         =   1.1293476836555E-06
(PID.TID 0000.0001) %MON trcstat_ptracer99_del2       =   0.0000000000000E+00
(PID.TID 0000.0001) // =======================================================
(PID.TID 0000.0001) // End MONITOR ptracers field statistics
(PID.TID 0000.0001) // =======================================================
(PID.TID 0000.0001) %CHECKPOINT         4 ckptA
(PID.TID 0000.0001)   Seconds in section "ALL                    [THE_MODEL_MAIN]":
(PID.TID 0000.0001)           User time:  0.610000014305115
(PID.TID 0000.0001)         System time:  7.999999821186066E-002
(PID.TID 0000.0001)     Wall clock time:  0.756354093551636
(PID.TID 0000.0001)          No. starts:           1
(PID.TID 0000.0001)           No. stops:           1
(PID.TID 0000.0001)   Seconds in section "INITIALISE_FIXED       [THE_MODEL_MAIN]":
(PID.TID 0000.0001)           User time:  0.259999990463257
(PID.TID 0000.0001)         System time:  3.999999910593033E-002
(PID.TID 0000.0001)     Wall clock time:  0.341215848922729
(PID.TID 0000.0001)          No. starts:           1
(PID.TID 0000.0001)           No. stops:           1
(PID.TID 0000.0001)   Seconds in section "THE_MAIN_LOOP          [THE_MODEL_MAIN]":
(PID.TID 0000.0001)           User time:  0.350000023841858
(PID.TID 0000.0001)         System time:  3.999999910593033E-002
(PID.TID 0000.0001)     Wall clock time:  0.414457082748413
(PID.TID 0000.0001)          No. starts:           1
(PID.TID 0000.0001)           No. stops:           1
(PID.TID 0000.0001)   Seconds in section "INITIALISE_VARIA    [THE_MAIN_LOOP]":
(PID.TID 0000.0001)           User time:  6.000000238418579E-002
(PID.TID 0000.0001)         System time:  1.999999955296516E-002
(PID.TID 0000.0001)     Wall clock time:  9.008288383483887E-002
(PID.TID 0000.0001)          No. starts:           1
(PID.TID 0000.0001)           No. stops:           1
(PID.TID 0000.0001)   Seconds in section "MAIN LOOP           [THE_MAIN_LOOP]":
(PID.TID 0000.0001)           User time:  0.290000021457672
(PID.TID 0000.0001)         System time:  1.999999955296516E-002
(PID.TID 0000.0001)     Wall clock time:  0.324333906173706
(PID.TID 0000.0001)          No. starts:           1
(PID.TID 0000.0001)           No. stops:           1
(PID.TID 0000.0001)   Seconds in section "FORWARD_STEP        [THE_MAIN_LOOP]":
(PID.TID 0000.0001)           User time:  0.290000021457672
(PID.TID 0000.0001)         System time:  1.999999955296516E-002
(PID.TID 0000.0001)     Wall clock time:  0.324286222457886
(PID.TID 0000.0001)          No. starts:           4
(PID.TID 0000.0001)           No. stops:           4
(PID.TID 0000.0001)   Seconds in section "LOAD_FIELDS_DRIVER  [FORWARD_STEP]":
(PID.TID 0000.0001)           User time:  0.000000000000000E+000
(PID.TID 0000.0001)         System time:  0.000000000000000E+000
(PID.TID 0000.0001)     Wall clock time:  1.807689666748047E-003
(PID.TID 0000.0001)          No. starts:           4
(PID.TID 0000.0001)           No. stops:           4
(PID.TID 0000.0001)   Seconds in section "EXTERNAL_FLDS_LOAD [LOAD_FLDS_DRIVER]":
(PID.TID 0000.0001)           User time:  0.000000000000000E+000
(PID.TID 0000.0001)         System time:  0.000000000000000E+000
(PID.TID 0000.0001)     Wall clock time:  5.137920379638672E-004
(PID.TID 0000.0001)          No. starts:           4
(PID.TID 0000.0001)           No. stops:           4
(PID.TID 0000.0001)   Seconds in section "DO_ATMOSPHERIC_PHYS [FORWARD_STEP]":
(PID.TID 0000.0001)           User time:  0.000000000000000E+000
(PID.TID 0000.0001)         System time:  0.000000000000000E+000
(PID.TID 0000.0001)     Wall clock time:  5.197525024414062E-005
(PID.TID 0000.0001)          No. starts:           4
(PID.TID 0000.0001)           No. stops:           4
(PID.TID 0000.0001)   Seconds in section "DO_OCEANIC_PHYS     [FORWARD_STEP]":
(PID.TID 0000.0001)           User time:  0.000000000000000E+000
(PID.TID 0000.0001)         System time:  0.000000000000000E+000
(PID.TID 0000.0001)     Wall clock time:  2.479553222656250E-004
(PID.TID 0000.0001)          No. starts:           4
(PID.TID 0000.0001)           No. stops:           4
(PID.TID 0000.0001)   Seconds in section "GCHEM_CALC_TENDENCY [FORWARD_STEP]":
(PID.TID 0000.0001)           User time:  0.000000000000000E+000
(PID.TID 0000.0001)         System time:  0.000000000000000E+000
(PID.TID 0000.0001)     Wall clock time:  3.695487976074219E-005
(PID.TID 0000.0001)          No. starts:           4
(PID.TID 0000.0001)           No. stops:           4
(PID.TID 0000.0001)   Seconds in section "THERMODYNAMICS      [FORWARD_STEP]":
(PID.TID 0000.0001)           User time:  0.180000066757202
(PID.TID 0000.0001)         System time:  0.000000000000000E+000
(PID.TID 0000.0001)     Wall clock time:  0.168810844421387
(PID.TID 0000.0001)          No. starts:           4
(PID.TID 0000.0001)           No. stops:           4
(PID.TID 0000.0001)   Seconds in section "TRC_CORRECTION_STEP [FORWARD_STEP]":
(PID.TID 0000.0001)           User time:  9.999990463256836E-003
(PID.TID 0000.0001)         System time:  0.000000000000000E+000
(PID.TID 0000.0001)     Wall clock time:  1.400566101074219E-002
(PID.TID 0000.0001)          No. starts:           4
(PID.TID 0000.0001)           No. stops:           4
(PID.TID 0000.0001)   Seconds in section "GCHEM_FORCING_SEP  [FORWARD_STEP]":
(PID.TID 0000.0001)           User time:  9.999990463256836E-003
(PID.TID 0000.0001)         System time:  0.000000000000000E+000
(PID.TID 0000.0001)     Wall clock time:  7.449865341186523E-003
(PID.TID 0000.0001)          No. starts:           4
(PID.TID 0000.0001)           No. stops:           4
(PID.TID 0000.0001)   Seconds in section "BLOCKING_EXCHANGES  [FORWARD_STEP]":
(PID.TID 0000.0001)           User time:  3.999996185302734E-002
(PID.TID 0000.0001)         System time:  0.000000000000000E+000
(PID.TID 0000.0001)     Wall clock time:  4.637575149536133E-002
(PID.TID 0000.0001)          No. starts:           4
(PID.TID 0000.0001)           No. stops:           4
(PID.TID 0000.0001)   Seconds in section "DO_STATEVARS_TAVE   [FORWARD_STEP]":
(PID.TID 0000.0001)           User time:  0.000000000000000E+000
(PID.TID 0000.0001)         System time:  0.000000000000000E+000
(PID.TID 0000.0001)     Wall clock time:  9.098052978515625E-004
(PID.TID 0000.0001)          No. starts:           4
(PID.TID 0000.0001)           No. stops:           4
(PID.TID 0000.0001)   Seconds in section "MONITOR             [FORWARD_STEP]":
(PID.TID 0000.0001)           User time:  0.000000000000000E+000
(PID.TID 0000.0001)         System time:  0.000000000000000E+000
(PID.TID 0000.0001)     Wall clock time:  4.105091094970703E-003
(PID.TID 0000.0001)          No. starts:           4
(PID.TID 0000.0001)           No. stops:           4
(PID.TID 0000.0001)   Seconds in section "DO_THE_MODEL_IO     [FORWARD_STEP]":
(PID.TID 0000.0001)           User time:  5.000001192092896E-002
(PID.TID 0000.0001)         System time:  1.000000163912773E-002
(PID.TID 0000.0001)     Wall clock time:  5.771279335021973E-002
(PID.TID 0000.0001)          No. starts:           4
(PID.TID 0000.0001)           No. stops:           4
(PID.TID 0000.0001)   Seconds in section "DO_WRITE_PICKUP     [FORWARD_STEP]":
(PID.TID 0000.0001)           User time:  0.000000000000000E+000
(PID.TID 0000.0001)         System time:  9.999997913837433E-003
(PID.TID 0000.0001)     Wall clock time:  2.224206924438477E-002
(PID.TID 0000.0001)          No. starts:           4
(PID.TID 0000.0001)           No. stops:           4
(PID.TID 0000.0001) // ======================================================
(PID.TID 0000.0001) // Tile <-> Tile communication statistics
(PID.TID 0000.0001) // ======================================================
(PID.TID 0000.0001) // o Tile number: 000001
(PID.TID 0000.0001) //         No. X exchanges =              0
(PID.TID 0000.0001) //            Max. X spins =              0
(PID.TID 0000.0001) //            Min. X spins =     1000000000
(PID.TID 0000.0001) //          Total. X spins =              0
(PID.TID 0000.0001) //            Avg. X spins =       0.00E+00
(PID.TID 0000.0001) //         No. Y exchanges =              0
(PID.TID 0000.0001) //            Max. Y spins =              0
(PID.TID 0000.0001) //            Min. Y spins =     1000000000
(PID.TID 0000.0001) //          Total. Y spins =              0
(PID.TID 0000.0001) //            Avg. Y spins =       0.00E+00
(PID.TID 0000.0001) // o Thread number: 000001
(PID.TID 0000.0001) //            No. barriers =          18946
(PID.TID 0000.0001) //      Max. barrier spins =              1
(PID.TID 0000.0001) //      Min. barrier spins =              1
(PID.TID 0000.0001) //     Total barrier spins =          18946
(PID.TID 0000.0001) //      Avg. barrier spins =       1.00E+00
