(PID.TID 0000.0001) 
(PID.TID 0000.0001) // ======================================================
(PID.TID 0000.0001) //                      MITgcm UV
(PID.TID 0000.0001) //                      =========
(PID.TID 0000.0001) // ======================================================
(PID.TID 0000.0001) // execution environment starting up...
(PID.TID 0000.0001) 
(PID.TID 0000.0001) // MITgcmUV version:  checkpoint62x
(PID.TID 0000.0001) // Build user:        jahn
(PID.TID 0000.0001) // Build host:        saramago.mit.edu
(PID.TID 0000.0001) // Build date:        Thu May 26 04:11:12 EDT 2011
(PID.TID 0000.0001) 
(PID.TID 0000.0001) // =======================================================
(PID.TID 0000.0001) // Execution Environment parameter file "eedata"
(PID.TID 0000.0001) // =======================================================
(PID.TID 0000.0001) ># Example "eedata" file
(PID.TID 0000.0001) ># Lines beginning "#" are comments
(PID.TID 0000.0001) ># nTx - No. threads per process in X
(PID.TID 0000.0001) ># nTy - No. threads per process in Y
(PID.TID 0000.0001) > &EEPARMS
(PID.TID 0000.0001) > nTx=1,
(PID.TID 0000.0001) > nTy=1,
(PID.TID 0000.0001) > printMapIncludesZeros = .TRUE.
(PID.TID 0000.0001) > /
(PID.TID 0000.0001) ># Note: Some systems use & as the
(PID.TID 0000.0001) ># namelist terminator. Other systems
(PID.TID 0000.0001) ># use a / character (as shown here).
(PID.TID 0000.0001) 
(PID.TID 0000.0001) // =======================================================
(PID.TID 0000.0001) // Computational Grid Specification ( see files "SIZE.h" )
(PID.TID 0000.0001) //                                  ( and "eedata"       )
(PID.TID 0000.0001) // =======================================================
(PID.TID 0000.0001)      nPx =    1 ; /* No. processes in X */
(PID.TID 0000.0001)      nPy =    1 ; /* No. processes in Y */
(PID.TID 0000.0001)      nSx =    2 ; /* No. tiles in X per process */
(PID.TID 0000.0001)      nSy =    2 ; /* No. tiles in Y per process */
(PID.TID 0000.0001)      sNx =   38 ; /* Tile size in X */
(PID.TID 0000.0001)      sNy =   36 ; /* Tile size in Y */
(PID.TID 0000.0001)      OLx =    4 ; /* Tile overlap distance in X */
(PID.TID 0000.0001)      OLy =    4 ; /* Tile overlap distance in Y */
(PID.TID 0000.0001)      nTx =    1 ; /* No. threads in X per process */
(PID.TID 0000.0001)      nTy =    1 ; /* No. threads in Y per process */
(PID.TID 0000.0001)       Nr =   24 ; /* No. levels in the vertical   */
(PID.TID 0000.0001)       Nx =   76 ; /* Total domain size in X ( = nPx*nSx*sNx ) */
(PID.TID 0000.0001)       Ny =   72 ; /* Total domain size in Y ( = nPy*nSy*sNy ) */
(PID.TID 0000.0001)   nTiles =    4 ; /* Total no. tiles per process ( = nSx*nSy ) */
(PID.TID 0000.0001)   nProcs =    1 ; /* Total no. processes ( = nPx*nPy ) */
(PID.TID 0000.0001) nThreads =    1 ; /* Total no. threads per process ( = nTx*nTy ) */
(PID.TID 0000.0001) usingMPI =    F ; /* Flag used to control whether MPI is in use */
(PID.TID 0000.0001)                   /*  note: To execute a program with MPI calls */
(PID.TID 0000.0001)                   /*  it must be launched appropriately e.g     */
(PID.TID 0000.0001)                   /*  "mpirun -np 64 ......"                    */
(PID.TID 0000.0001) useCoupler=    F ;/* Flag used to control communications with   */
(PID.TID 0000.0001)                   /*  other model components, through a coupler */
(PID.TID 0000.0001) printMapIncludesZeros=    T ; /* print zeros in Std.Output maps */
(PID.TID 0000.0001) maxLengthPrt1D=   65 /* maxLength of 1D array printed to StdOut */
(PID.TID 0000.0001) 
(PID.TID 0000.0001) // ======================================================
(PID.TID 0000.0001) // Mapping of tiles to threads
(PID.TID 0000.0001) // ======================================================
(PID.TID 0000.0001) // -o- Thread   1, tiles (   1:   2,   1:   2)
(PID.TID 0000.0001) 
(PID.TID 0000.0001) // ======================================================
(PID.TID 0000.0001) // Tile <-> Tile connectvity table
(PID.TID 0000.0001) // ======================================================
(PID.TID 0000.0001) // Tile number: 000001 (process no. = 000001)
(PID.TID 0000.0001) //        WEST: Tile = 000002, Process = 000001, Comm = put
(PID.TID 0000.0001) //                bi = 000002, bj = 000001
(PID.TID 0000.0001) //        EAST: Tile = 000002, Process = 000001, Comm = put
(PID.TID 0000.0001) //                bi = 000002, bj = 000001
(PID.TID 0000.0001) //       SOUTH: Tile = 000003, Process = 000001, Comm = put
(PID.TID 0000.0001) //                bi = 000001, bj = 000002
(PID.TID 0000.0001) //       NORTH: Tile = 000003, Process = 000001, Comm = put
(PID.TID 0000.0001) //                bi = 000001, bj = 000002
(PID.TID 0000.0001) // Tile number: 000002 (process no. = 000001)
(PID.TID 0000.0001) //        WEST: Tile = 000001, Process = 000001, Comm = put
(PID.TID 0000.0001) //                bi = 000001, bj = 000001
(PID.TID 0000.0001) //        EAST: Tile = 000001, Process = 000001, Comm = put
(PID.TID 0000.0001) //                bi = 000001, bj = 000001
(PID.TID 0000.0001) //       SOUTH: Tile = 000004, Process = 000001, Comm = put
(PID.TID 0000.0001) //                bi = 000002, bj = 000002
(PID.TID 0000.0001) //       NORTH: Tile = 000004, Process = 000001, Comm = put
(PID.TID 0000.0001) //                bi = 000002, bj = 000002
(PID.TID 0000.0001) // Tile number: 000003 (process no. = 000001)
(PID.TID 0000.0001) //        WEST: Tile = 000004, Process = 000001, Comm = put
(PID.TID 0000.0001) //                bi = 000002, bj = 000002
(PID.TID 0000.0001) //        EAST: Tile = 000004, Process = 000001, Comm = put
(PID.TID 0000.0001) //                bi = 000002, bj = 000002
(PID.TID 0000.0001) //       SOUTH: Tile = 000001, Process = 000001, Comm = put
(PID.TID 0000.0001) //                bi = 000001, bj = 000001
(PID.TID 0000.0001) //       NORTH: Tile = 000001, Process = 000001, Comm = put
(PID.TID 0000.0001) //                bi = 000001, bj = 000001
(PID.TID 0000.0001) // Tile number: 000004 (process no. = 000001)
(PID.TID 0000.0001) //        WEST: Tile = 000003, Process = 000001, Comm = put
(PID.TID 0000.0001) //                bi = 000001, bj = 000002
(PID.TID 0000.0001) //        EAST: Tile = 000003, Process = 000001, Comm = put
(PID.TID 0000.0001) //                bi = 000001, bj = 000002
(PID.TID 0000.0001) //       SOUTH: Tile = 000002, Process = 000001, Comm = put
(PID.TID 0000.0001) //                bi = 000002, bj = 000001
(PID.TID 0000.0001) //       NORTH: Tile = 000002, Process = 000001, Comm = put
(PID.TID 0000.0001) //                bi = 000002, bj = 000001
(PID.TID 0000.0001) 
(PID.TID 0000.0001) DEBUG_MSG: ENTERED S/R THE_MODEL_MAIN
(PID.TID 0000.0001) DEBUG_MSG: CALLING S/R INITIALISE_FIXED
(PID.TID 0000.0001)  INI_PARMS: opening model parameter file "data"
(PID.TID 0000.0001)  OPEN_COPY_DATA_FILE: opening file data
(PID.TID 0000.0001) // =======================================================
(PID.TID 0000.0001) // Parameter file "data"
(PID.TID 0000.0001) // =======================================================
(PID.TID 0000.0001) ># ====================
(PID.TID 0000.0001) ># | Model parameters |
(PID.TID 0000.0001) ># ====================
(PID.TID 0000.0001) >#
(PID.TID 0000.0001) ># Continuous equation parameters
(PID.TID 0000.0001) > &PARM01
(PID.TID 0000.0001) > tRef               = 3*23.,3*22.,21.,2*20.,19.,2*18.,17.,2*16.,15.,14.,13.,
(PID.TID 0000.0001) >                      12.,11.,2*9.,8.,7.
(PID.TID 0000.0001) > sRef               = 24*34.5,
(PID.TID 0000.0001) > viscAr= 6.0826e-04,
(PID.TID 0000.0001) > no_slip_sides=.FALSE.,
(PID.TID 0000.0001) > no_slip_bottom=.TRUE.,
(PID.TID 0000.0001) > diffKrT=1.e-6,
(PID.TID 0000.0001) > diffKrS=1.e-6,
(PID.TID 0000.0001) > rhonil=1027.5,
(PID.TID 0000.0001) > rhoConstFresh=999.8,
(PID.TID 0000.0001) > eosType='JMD95Z',
(PID.TID 0000.0001) > hFacMinDr=50.,
(PID.TID 0000.0001) > hFacMin=0.3,
(PID.TID 0000.0001) > hFacInf=0.1,
(PID.TID 0000.0001) > hFacSup=5.,
(PID.TID 0000.0001) ># select_rStar=2,
(PID.TID 0000.0001) ># nonlinFreeSurf=4,
(PID.TID 0000.0001) > implicitDiffusion=.TRUE.,
(PID.TID 0000.0001) > implicitViscosity=.TRUE.,
(PID.TID 0000.0001) > viscC4Leith=1.5,
(PID.TID 0000.0001) > viscC4Leithd=1.5,
(PID.TID 0000.0001) > viscA4GridMax=0.5,
(PID.TID 0000.0001) > useAreaViscLength=.TRUE.,
(PID.TID 0000.0001) > sideDragFactor=0.,
(PID.TID 0000.0001) > highOrderVorticity  = .TRUE.,
(PID.TID 0000.0001) > bottomDragQuadratic = 0.002,
(PID.TID 0000.0001) > tempAdvScheme=7,
(PID.TID 0000.0001) > saltAdvScheme=7,
(PID.TID 0000.0001) > StaggerTimeStep=.TRUE.,
(PID.TID 0000.0001) > multiDimAdvection=.TRUE.,
(PID.TID 0000.0001) > vectorInvariantMomentum=.TRUE.,
(PID.TID 0000.0001) > implicitFreeSurface=.TRUE.,
(PID.TID 0000.0001) > exactConserv=.TRUE.,
(PID.TID 0000.0001) >#debuglevel=-1,
(PID.TID 0000.0001) > convertFW2Salt=-1
(PID.TID 0000.0001) ># useRealFreshWaterFlux=.TRUE.,
(PID.TID 0000.0001) > useSingleCPUio=.TRUE.,
(PID.TID 0000.0001) > globalFiles=.TRUE.,
(PID.TID 0000.0001) > writeBinaryPrec=64,
(PID.TID 0000.0001) > /
(PID.TID 0000.0001) >
(PID.TID 0000.0001) ># Elliptic solver parameters
(PID.TID 0000.0001) > &PARM02
(PID.TID 0000.0001) > cg2dMaxIters=100,
(PID.TID 0000.0001) > cg2dTargetResidual=1.E-5,
(PID.TID 0000.0001) > /
(PID.TID 0000.0001) >
(PID.TID 0000.0001) ># Time stepping parameters
(PID.TID 0000.0001) > &PARM03
(PID.TID 0000.0001) ># 19930701
(PID.TID 0000.0001) >#niter0=0000039384,
(PID.TID 0000.0001) >#nTimeSteps=73,
(PID.TID 0000.0001) >#nTimeSteps=288,
(PID.TID 0000.0001) ># 19990301
(PID.TID 0000.0001) >#starttime=226022400.,
(PID.TID 0000.0001) >#endtime=226065600.,
(PID.TID 0000.0001) ># 19990301 1200
(PID.TID 0000.0001) > starttime=226065600.,
(PID.TID 0000.0001) > nTimeSteps=4,
(PID.TID 0000.0001) ># 19990301 1200
(PID.TID 0000.0001) >#starttime=36720000.,
(PID.TID 0000.0001) >#starttime=63158400.,
(PID.TID 0000.0001) >#starttime=94694400.,
(PID.TID 0000.0001) >#starttime=126230400.,
(PID.TID 0000.0001) >#starttime=157852800.,
(PID.TID 0000.0001) >#starttime=189388800.,
(PID.TID 0000.0001) >#starttime=220924800.,
(PID.TID 0000.0001) >#starttime=252460800.,
(PID.TID 0000.0001) >#starttime=284083200.,
(PID.TID 0000.0001) >#starttime=315619200.,
(PID.TID 0000.0001) ># 19930201
(PID.TID 0000.0001) >#endtime=34300800.,
(PID.TID 0000.0001) ># 19930301
(PID.TID 0000.0001) >#endtime=36720000.,
(PID.TID 0000.0001) ># 19930401
(PID.TID 0000.0001) >#endtime=39398400.,
(PID.TID 0000.0001) ># 19930501
(PID.TID 0000.0001) >#endtime=41990400.,
(PID.TID 0000.0001) ># 19930601
(PID.TID 0000.0001) >#endtime=44668800.,
(PID.TID 0000.0001) ># 19930701
(PID.TID 0000.0001) >#endtime=47260800.,
(PID.TID 0000.0001) ># 19930801
(PID.TID 0000.0001) >#endtime=49939200.,
(PID.TID 0000.0001) ># 19940101
(PID.TID 0000.0001) >#endtime=63158400.,
(PID.TID 0000.0001) ># 19950101
(PID.TID 0000.0001) >#endtime=94694400.,
(PID.TID 0000.0001) ># 19960101
(PID.TID 0000.0001) >#endtime=126230400.,
(PID.TID 0000.0001) ># 19970101
(PID.TID 0000.0001) >#endtime=157852800.,
(PID.TID 0000.0001) ># 19980101
(PID.TID 0000.0001) >#endtime=189388800.,
(PID.TID 0000.0001) ># 19990101
(PID.TID 0000.0001) >#endtime=220924800.,
(PID.TID 0000.0001) ># 19990301
(PID.TID 0000.0001) >#endtime=226022400.,
(PID.TID 0000.0001) ># 19990301 1200
(PID.TID 0000.0001) >#endtime=226065600.,
(PID.TID 0000.0001) ># 20000101
(PID.TID 0000.0001) >#endtime=252460800.,
(PID.TID 0000.0001) ># 20010101
(PID.TID 0000.0001) >#endtime=284083200.,
(PID.TID 0000.0001) ># 20020101
(PID.TID 0000.0001) >#endtime=315619200.,
(PID.TID 0000.0001) ># 20020701
(PID.TID 0000.0001) >#endtime=331257600.,
(PID.TID 0000.0001) >#endtime=347155200.,
(PID.TID 0000.0001) > abEps=0.1,
(PID.TID 0000.0001) > deltaT=1200,
(PID.TID 0000.0001) > cAdjFreq=0.,
(PID.TID 0000.0001) > pickupStrictlyMatch=.FALSE.,
(PID.TID 0000.0001) >#pChkptFreq=31536000.,
(PID.TID 0000.0001) > pChkptFreq=2678400.,
(PID.TID 0000.0001) > chkptFreq=2592000.,
(PID.TID 0000.0001) >#now in data.exf:
(PID.TID 0000.0001) >#tauSaltClimRelax = 8722203.,
(PID.TID 0000.0001) > monitorFreq=1200.,
(PID.TID 0000.0001) >#diagFreq=1200.,
(PID.TID 0000.0001) > forcing_In_AB = .FALSE.,
(PID.TID 0000.0001) > dumpInitAndLast=.FALSE.,
(PID.TID 0000.0001) > /
(PID.TID 0000.0001) >
(PID.TID 0000.0001) ># Gridding parameters
(PID.TID 0000.0001) > &PARM04
(PID.TID 0000.0001) > usingCartesianGrid=.FALSE.,
(PID.TID 0000.0001) > usingSphericalPolarGrid=.FALSE.,
(PID.TID 0000.0001) > usingCurvilinearGrid=.TRUE.,
(PID.TID 0000.0001) > delR   = 10.00, 10.00, 10.00, 10.00, 10.00, 10.00, 10.00, 10.01,
(PID.TID 0000.0001) > 10.03, 10.11, 10.32, 10.80, 11.76, 13.42, 16.04 , 19.82, 24.85,
(PID.TID 0000.0001) > 31.10, 38.42, 46.50, 55.00, 63.50, 71.58, 78.90
(PID.TID 0000.0001) > /
(PID.TID 0000.0001) >
(PID.TID 0000.0001) ># Input datasets
(PID.TID 0000.0001) > &PARM05
(PID.TID 0000.0001) > bathyFile      ='ETOPO2_76x72_baltic_corr',
(PID.TID 0000.0001) > hydrogThetaFile='',
(PID.TID 0000.0001) > hydrogSaltFile ='',
(PID.TID 0000.0001) > /
(PID.TID 0000.0001) 
(PID.TID 0000.0001)  INI_PARMS ; starts to read PARM01
(PID.TID 0000.0001)  INI_PARMS ; read PARM01 : OK
(PID.TID 0000.0001)  INI_PARMS ; starts to read PARM02
(PID.TID 0000.0001)  INI_PARMS ; read PARM02 : OK
(PID.TID 0000.0001)  INI_PARMS ; starts to read PARM03
(PID.TID 0000.0001)  INI_PARMS ; read PARM03 : OK
(PID.TID 0000.0001)  INI_PARMS ; starts to read PARM04
(PID.TID 0000.0001)  INI_PARMS ; read PARM04 : OK
(PID.TID 0000.0001)  INI_PARMS ; starts to read PARM05
(PID.TID 0000.0001)  INI_PARMS ; read PARM05 : OK
(PID.TID 0000.0001)  INI_PARMS: finished reading file "data"
(PID.TID 0000.0001)  PACKAGES_BOOT: opening data.pkg
(PID.TID 0000.0001)  OPEN_COPY_DATA_FILE: opening file data.pkg
(PID.TID 0000.0001) // =======================================================
(PID.TID 0000.0001) // Parameter file "data.pkg"
(PID.TID 0000.0001) // =======================================================
(PID.TID 0000.0001) ># Packages
(PID.TID 0000.0001) > &PACKAGES
(PID.TID 0000.0001) > useEXF         = .TRUE.,
(PID.TID 0000.0001) > useSEAICE      = .TRUE.,
(PID.TID 0000.0001) > useKPP         = .TRUE.,
(PID.TID 0000.0001) > useDiagnostics = .TRUE.,
(PID.TID 0000.0001) > useOBCS        = .TRUE.,
(PID.TID 0000.0001) > usePTRACERS    = .TRUE.,
(PID.TID 0000.0001) > useGCHEM       = .TRUE.,
(PID.TID 0000.0001) > useMNC         = .FALSE.,
(PID.TID 0000.0001) > /
(PID.TID 0000.0001) 
(PID.TID 0000.0001)  PACKAGES_BOOT: finished reading data.pkg
(PID.TID 0000.0001) CAL_READPARMS: opening data.cal
(PID.TID 0000.0001)  OPEN_COPY_DATA_FILE: opening file data.cal
(PID.TID 0000.0001) // =======================================================
(PID.TID 0000.0001) // Parameter file "data.cal"
(PID.TID 0000.0001) // =======================================================
(PID.TID 0000.0001) >#
(PID.TID 0000.0001) ># *******************
(PID.TID 0000.0001) ># Calendar Parameters
(PID.TID 0000.0001) ># *******************
(PID.TID 0000.0001) > &CAL_NML
(PID.TID 0000.0001) > TheCalendar='gregorian',
(PID.TID 0000.0001) > startDate_1=19920101,
(PID.TID 0000.0001) > startDate_2=000000,
(PID.TID 0000.0001) > calendarDumps = .TRUE.
(PID.TID 0000.0001) > /
(PID.TID 0000.0001) 
(PID.TID 0000.0001) CAL_READPARMS: finished reading data.cal
(PID.TID 0000.0001) 
(PID.TID 0000.0001) // =======================================================
(PID.TID 0000.0001) // Calendar configuration >>> START <<<
(PID.TID 0000.0001) // =======================================================
(PID.TID 0000.0001) 
(PID.TID 0000.0001) Calendar version: 0.2.0
(PID.TID 0000.0001) 
(PID.TID 0000.0001) startTime =   /* Start time of the model integration [s] */
(PID.TID 0000.0001)                 2.260656000000000E+08
(PID.TID 0000.0001)     ;
(PID.TID 0000.0001) endTime =   /* End time of the model integration [s] */
(PID.TID 0000.0001)                 2.260704000000000E+08
(PID.TID 0000.0001)     ;
(PID.TID 0000.0001) deltatclock =   /* Time interval for a model forward step [s] */
(PID.TID 0000.0001)                 1.200000000000000E+03
(PID.TID 0000.0001)     ;
(PID.TID 0000.0001) usingGregorianCalendar =  /* Calendar Type: Gregorian Calendar */
(PID.TID 0000.0001)                   T
(PID.TID 0000.0001)     ;
(PID.TID 0000.0001) usingJulianCalendar =  /* Calendar Type: Julian Calendar */
(PID.TID 0000.0001)                   F
(PID.TID 0000.0001)     ;
(PID.TID 0000.0001) usingModelCalendar =  /* Calendar Type: Model Calendar */
(PID.TID 0000.0001)                   F
(PID.TID 0000.0001)     ;
(PID.TID 0000.0001) usingNoCalendar =  /* Calendar Type: No Calendar */
(PID.TID 0000.0001)                   F
(PID.TID 0000.0001)     ;
(PID.TID 0000.0001) modelstartdate (YYYYMMDD) =   /* Model start date YYYY-MM-DD  */
(PID.TID 0000.0001)                19990301
(PID.TID 0000.0001)     ;
(PID.TID 0000.0001) modelstartdate (HHMMSS) =   /* Model start date HH-MM-SS  */
(PID.TID 0000.0001)                  120000
(PID.TID 0000.0001)     ;
(PID.TID 0000.0001) modelenddate (YYYYMMDD) =   /* Model end date YYYY-MM-DD  */
(PID.TID 0000.0001)                19990301
(PID.TID 0000.0001)     ;
(PID.TID 0000.0001) modelenddate (HHMMSS) =   /* Model end date HH-MM-SS  */
(PID.TID 0000.0001)                  132000
(PID.TID 0000.0001)     ;
(PID.TID 0000.0001) intyears = /* Number of calendar years affected by the integration */
(PID.TID 0000.0001)                       1
(PID.TID 0000.0001)     ;
(PID.TID 0000.0001) intmonths= /* Number of calendar months affected by the integration */
(PID.TID 0000.0001)                       1
(PID.TID 0000.0001)     ;
(PID.TID 0000.0001) intdays = /* Number of calendar days affected by the integration */
(PID.TID 0000.0001)                       1
(PID.TID 0000.0001)     ;
(PID.TID 0000.0001) 
(PID.TID 0000.0001) // =======================================================
(PID.TID 0000.0001) // Calendar configuration  >>> END <<<
(PID.TID 0000.0001) // =======================================================
(PID.TID 0000.0001) 
(PID.TID 0000.0001) EXF_READPARMS: opening data.exf
(PID.TID 0000.0001)  OPEN_COPY_DATA_FILE: opening file data.exf
(PID.TID 0000.0001) // =======================================================
(PID.TID 0000.0001) // Parameter file "data.exf"
(PID.TID 0000.0001) // =======================================================
(PID.TID 0000.0001) ># *********************
(PID.TID 0000.0001) ># External Forcing Data
(PID.TID 0000.0001) ># *********************
(PID.TID 0000.0001) >#
(PID.TID 0000.0001) > &EXF_NML_01
(PID.TID 0000.0001) > exf_albedo        = 0.15,
(PID.TID 0000.0001) > exf_iprec         = 32,
(PID.TID 0000.0001) > exf_yftype        = 'RL',
(PID.TID 0000.0001) > useExfYearlyFields= .TRUE.,
(PID.TID 0000.0001) > twoDigitYear      = .TRUE.,
(PID.TID 0000.0001) > useExfCheckRange  = .FALSE.,
(PID.TID 0000.0001) > /
(PID.TID 0000.0001) >#
(PID.TID 0000.0001) > &EXF_NML_02
(PID.TID 0000.0001) > atempfile         = 'RG_tmp2m',
(PID.TID 0000.0001) > aqhfile           = 'RG_spfh2m',
(PID.TID 0000.0001) > precipfile        = 'RG_rain',
(PID.TID 0000.0001) > runofffile        = 'runoff-360x180x12.bin',
(PID.TID 0000.0001) > uwindfile         = 'RG_u10m',
(PID.TID 0000.0001) > vwindfile         = 'RG_v10m',
(PID.TID 0000.0001) > swdownfile        = 'RG_dsw',
(PID.TID 0000.0001) > lwdownfile        = 'RG_dlw',
(PID.TID 0000.0001) > climsssfile       = 'LEV01_SSS_360x180x12.bin',
(PID.TID 0000.0001) >#
(PID.TID 0000.0001) > atempstartdate1   = 19990301,
(PID.TID 0000.0001) > atempstartdate2   = 120000,
(PID.TID 0000.0001) > atempperiod       = 21600.0,
(PID.TID 0000.0001) >#
(PID.TID 0000.0001) > aqhstartdate1     = 19990301,
(PID.TID 0000.0001) > aqhstartdate2     = 120000,
(PID.TID 0000.0001) > aqhperiod         = 21600.0,
(PID.TID 0000.0001) >#
(PID.TID 0000.0001) > precipstartdate1  = 19990301,
(PID.TID 0000.0001) > precipstartdate2  = 120000,
(PID.TID 0000.0001) > precipperiod      = 21600.0,
(PID.TID 0000.0001) >#
(PID.TID 0000.0001) > runoffperiod      = -12.,
(PID.TID 0000.0001) >#
(PID.TID 0000.0001) > uwindstartdate1   = 19990301,
(PID.TID 0000.0001) > uwindstartdate2   = 120000,
(PID.TID 0000.0001) > uwindperiod       = 21600.0,
(PID.TID 0000.0001) >#
(PID.TID 0000.0001) > vwindstartdate1   = 19990301,
(PID.TID 0000.0001) > vwindstartdate2   = 120000,
(PID.TID 0000.0001) > vwindperiod       = 21600.0,
(PID.TID 0000.0001) >#
(PID.TID 0000.0001) > swdownstartdate1  = 19990301,
(PID.TID 0000.0001) > swdownstartdate2  = 090000,
(PID.TID 0000.0001) > swdownperiod      = 21600.0,
(PID.TID 0000.0001) >#
(PID.TID 0000.0001) > lwdownstartdate1  = 19990301,
(PID.TID 0000.0001) > lwdownstartdate2  = 090000,
(PID.TID 0000.0001) > lwdownperiod      = 21600.0,
(PID.TID 0000.0001) >#
(PID.TID 0000.0001) > climsssperiod     = -12.,
(PID.TID 0000.0001) > climsssTauRelax   = 8722203.,
(PID.TID 0000.0001) > /
(PID.TID 0000.0001) >#
(PID.TID 0000.0001) > &EXF_NML_03
(PID.TID 0000.0001) > exf_offset_atemp  = 273.3971,
(PID.TID 0000.0001) > exf_inscal_runoff = 3.1710e-08,
(PID.TID 0000.0001) > /
(PID.TID 0000.0001) >#
(PID.TID 0000.0001) > &EXF_NML_04
(PID.TID 0000.0001) > atemp_lon0        = 0.00D0,
(PID.TID 0000.0001) > atemp_lon_inc     = 1.875D0,
(PID.TID 0000.0001) > atemp_lat0        = -88.5420D0,
(PID.TID 0000.0001) > atemp_lat_inc     = 1.8888, 1.9000, 1.9024, 1.9034, 1.9039, 1.9042,
(PID.TID 0000.0001) >     1.9042, 1.9044, 1.9045, 1.9045, 1.9046, 1.9046, 1.9046, 1.9046,
(PID.TID 0000.0001) >     1.9047, 1.9046, 1.9047, 1.9047, 1.9047, 1.9047, 1.9047, 1.9047,
(PID.TID 0000.0001) >     1.9047, 1.9047, 1.9047, 1.9047, 1.9048, 1.9047, 1.9047, 1.9047,
(PID.TID 0000.0001) >     1.9047, 1.9048, 1.9047, 1.9047, 1.9048, 1.9047, 1.9047, 1.9048,
(PID.TID 0000.0001) >     1.9047, 1.9047, 1.9048, 1.9047, 1.9047, 1.9048, 1.9047, 1.9047,
(PID.TID 0000.0001) >     1.9048, 1.9047, 1.9047, 1.9048, 1.9047, 1.9047, 1.9048, 1.9047,
(PID.TID 0000.0001) >     1.9047, 1.9048, 1.9047, 1.9047, 1.9048, 1.9047, 1.9047, 1.9048,
(PID.TID 0000.0001) >     1.9047, 1.9047, 1.9047, 1.9047, 1.9048, 1.9047, 1.9047, 1.9047,
(PID.TID 0000.0001) >     1.9047, 1.9047, 1.9047, 1.9047, 1.9047, 1.9047, 1.9047, 1.9046,
(PID.TID 0000.0001) >     1.9047, 1.9046, 1.9046, 1.9046, 1.9046, 1.9045, 1.9045, 1.9044,
(PID.TID 0000.0001) >     1.9042, 1.9042, 1.9039, 1.9034, 1.9024, 1.9000, 1.8888, 1.8888,
(PID.TID 0000.0001) > atemp_nlon        = 192,
(PID.TID 0000.0001) > atemp_nlat        = 94,
(PID.TID 0000.0001) >#
(PID.TID 0000.0001) > aqh_lon0          = 0.00D0,
(PID.TID 0000.0001) > aqh_lon_inc       = 1.875D0,
(PID.TID 0000.0001) > aqh_lat0          = -88.5420D0,
(PID.TID 0000.0001) > aqh_lat_inc       = 1.8888, 1.9000, 1.9024, 1.9034, 1.9039, 1.9042,
(PID.TID 0000.0001) >     1.9042, 1.9044, 1.9045, 1.9045, 1.9046, 1.9046, 1.9046, 1.9046,
(PID.TID 0000.0001) >     1.9047, 1.9046, 1.9047, 1.9047, 1.9047, 1.9047, 1.9047, 1.9047,
(PID.TID 0000.0001) >     1.9047, 1.9047, 1.9047, 1.9047, 1.9048, 1.9047, 1.9047, 1.9047,
(PID.TID 0000.0001) >     1.9047, 1.9048, 1.9047, 1.9047, 1.9048, 1.9047, 1.9047, 1.9048,
(PID.TID 0000.0001) >     1.9047, 1.9047, 1.9048, 1.9047, 1.9047, 1.9048, 1.9047, 1.9047,
(PID.TID 0000.0001) >     1.9048, 1.9047, 1.9047, 1.9048, 1.9047, 1.9047, 1.9048, 1.9047,
(PID.TID 0000.0001) >     1.9047, 1.9048, 1.9047, 1.9047, 1.9048, 1.9047, 1.9047, 1.9048,
(PID.TID 0000.0001) >     1.9047, 1.9047, 1.9047, 1.9047, 1.9048, 1.9047, 1.9047, 1.9047,
(PID.TID 0000.0001) >     1.9047, 1.9047, 1.9047, 1.9047, 1.9047, 1.9047, 1.9047, 1.9046,
(PID.TID 0000.0001) >     1.9047, 1.9046, 1.9046, 1.9046, 1.9046, 1.9045, 1.9045, 1.9044,
(PID.TID 0000.0001) >     1.9042, 1.9042, 1.9039, 1.9034, 1.9024, 1.9000, 1.8888, 1.8888,
(PID.TID 0000.0001) > aqh_nlon          = 192,
(PID.TID 0000.0001) > aqh_nlat          = 94,
(PID.TID 0000.0001) >#
(PID.TID 0000.0001) > precip_lon0       = 0.00D0,
(PID.TID 0000.0001) > precip_lon_inc    = 1.875D0,
(PID.TID 0000.0001) > precip_lat0       = -88.5420D0,
(PID.TID 0000.0001) > precip_lat_inc    = 1.8888, 1.9000, 1.9024, 1.9034, 1.9039, 1.9042,
(PID.TID 0000.0001) >     1.9042, 1.9044, 1.9045, 1.9045, 1.9046, 1.9046, 1.9046, 1.9046,
(PID.TID 0000.0001) >     1.9047, 1.9046, 1.9047, 1.9047, 1.9047, 1.9047, 1.9047, 1.9047,
(PID.TID 0000.0001) >     1.9047, 1.9047, 1.9047, 1.9047, 1.9048, 1.9047, 1.9047, 1.9047,
(PID.TID 0000.0001) >     1.9047, 1.9048, 1.9047, 1.9047, 1.9048, 1.9047, 1.9047, 1.9048,
(PID.TID 0000.0001) >     1.9047, 1.9047, 1.9048, 1.9047, 1.9047, 1.9048, 1.9047, 1.9047,
(PID.TID 0000.0001) >     1.9048, 1.9047, 1.9047, 1.9048, 1.9047, 1.9047, 1.9048, 1.9047,
(PID.TID 0000.0001) >     1.9047, 1.9048, 1.9047, 1.9047, 1.9048, 1.9047, 1.9047, 1.9048,
(PID.TID 0000.0001) >     1.9047, 1.9047, 1.9047, 1.9047, 1.9048, 1.9047, 1.9047, 1.9047,
(PID.TID 0000.0001) >     1.9047, 1.9047, 1.9047, 1.9047, 1.9047, 1.9047, 1.9047, 1.9046,
(PID.TID 0000.0001) >     1.9047, 1.9046, 1.9046, 1.9046, 1.9046, 1.9045, 1.9045, 1.9044,
(PID.TID 0000.0001) >     1.9042, 1.9042, 1.9039, 1.9034, 1.9024, 1.9000, 1.8888, 1.8888,
(PID.TID 0000.0001) > precip_nlon       = 192,
(PID.TID 0000.0001) > precip_nlat       = 94,
(PID.TID 0000.0001) >#
(PID.TID 0000.0001) > runoff_lon0       = 0.50D0,
(PID.TID 0000.0001) > runoff_lon_inc    = 1.0D0,
(PID.TID 0000.0001) > runoff_lat0       = -89.5D0,
(PID.TID 0000.0001) > runoff_lat_inc    = 179*1.,
(PID.TID 0000.0001) > runoff_nlon       = 360,
(PID.TID 0000.0001) > runoff_nlat       = 180,
(PID.TID 0000.0001) >#
(PID.TID 0000.0001) > uwind_lon0        = 0.00D0,
(PID.TID 0000.0001) > uwind_lon_inc     = 1.875D0,
(PID.TID 0000.0001) > uwind_lat0        = -88.5420D0,
(PID.TID 0000.0001) > uwind_lat_inc     = 1.8888, 1.9000, 1.9024, 1.9034, 1.9039, 1.9042,
(PID.TID 0000.0001) >     1.9042, 1.9044, 1.9045, 1.9045, 1.9046, 1.9046, 1.9046, 1.9046,
(PID.TID 0000.0001) >     1.9047, 1.9046, 1.9047, 1.9047, 1.9047, 1.9047, 1.9047, 1.9047,
(PID.TID 0000.0001) >     1.9047, 1.9047, 1.9047, 1.9047, 1.9048, 1.9047, 1.9047, 1.9047,
(PID.TID 0000.0001) >     1.9047, 1.9048, 1.9047, 1.9047, 1.9048, 1.9047, 1.9047, 1.9048,
(PID.TID 0000.0001) >     1.9047, 1.9047, 1.9048, 1.9047, 1.9047, 1.9048, 1.9047, 1.9047,
(PID.TID 0000.0001) >     1.9048, 1.9047, 1.9047, 1.9048, 1.9047, 1.9047, 1.9048, 1.9047,
(PID.TID 0000.0001) >     1.9047, 1.9048, 1.9047, 1.9047, 1.9048, 1.9047, 1.9047, 1.9048,
(PID.TID 0000.0001) >     1.9047, 1.9047, 1.9047, 1.9047, 1.9048, 1.9047, 1.9047, 1.9047,
(PID.TID 0000.0001) >     1.9047, 1.9047, 1.9047, 1.9047, 1.9047, 1.9047, 1.9047, 1.9046,
(PID.TID 0000.0001) >     1.9047, 1.9046, 1.9046, 1.9046, 1.9046, 1.9045, 1.9045, 1.9044,
(PID.TID 0000.0001) >     1.9042, 1.9042, 1.9039, 1.9034, 1.9024, 1.9000, 1.8888, 1.8888,
(PID.TID 0000.0001) > uwind_nlon        = 192,
(PID.TID 0000.0001) > uwind_nlat        = 94,
(PID.TID 0000.0001) >#
(PID.TID 0000.0001) > vwind_lon0        = 0.00D0,
(PID.TID 0000.0001) > vwind_lon_inc     = 1.875D0,
(PID.TID 0000.0001) > vwind_lat0        = -88.5420D0,
(PID.TID 0000.0001) > vwind_lat_inc     = 1.8888, 1.9000, 1.9024, 1.9034, 1.9039, 1.9042,
(PID.TID 0000.0001) >     1.9042, 1.9044, 1.9045, 1.9045, 1.9046, 1.9046, 1.9046, 1.9046,
(PID.TID 0000.0001) >     1.9047, 1.9046, 1.9047, 1.9047, 1.9047, 1.9047, 1.9047, 1.9047,
(PID.TID 0000.0001) >     1.9047, 1.9047, 1.9047, 1.9047, 1.9048, 1.9047, 1.9047, 1.9047,
(PID.TID 0000.0001) >     1.9047, 1.9048, 1.9047, 1.9047, 1.9048, 1.9047, 1.9047, 1.9048,
(PID.TID 0000.0001) >     1.9047, 1.9047, 1.9048, 1.9047, 1.9047, 1.9048, 1.9047, 1.9047,
(PID.TID 0000.0001) >     1.9048, 1.9047, 1.9047, 1.9048, 1.9047, 1.9047, 1.9048, 1.9047,
(PID.TID 0000.0001) >     1.9047, 1.9048, 1.9047, 1.9047, 1.9048, 1.9047, 1.9047, 1.9048,
(PID.TID 0000.0001) >     1.9047, 1.9047, 1.9047, 1.9047, 1.9048, 1.9047, 1.9047, 1.9047,
(PID.TID 0000.0001) >     1.9047, 1.9047, 1.9047, 1.9047, 1.9047, 1.9047, 1.9047, 1.9046,
(PID.TID 0000.0001) >     1.9047, 1.9046, 1.9046, 1.9046, 1.9046, 1.9045, 1.9045, 1.9044,
(PID.TID 0000.0001) >     1.9042, 1.9042, 1.9039, 1.9034, 1.9024, 1.9000, 1.8888, 1.8888,
(PID.TID 0000.0001) > vwind_nlon        = 192,
(PID.TID 0000.0001) > vwind_nlat        = 94,
(PID.TID 0000.0001) >#
(PID.TID 0000.0001) > swdown_lon0       = 0.00D0,
(PID.TID 0000.0001) > swdown_lon_inc    = 1.875D0,
(PID.TID 0000.0001) > swdown_lat0       = -88.5420D0,
(PID.TID 0000.0001) > swdown_lat_inc    = 1.8888, 1.9000, 1.9024, 1.9034, 1.9039, 1.9042,
(PID.TID 0000.0001) >     1.9042, 1.9044, 1.9045, 1.9045, 1.9046, 1.9046, 1.9046, 1.9046,
(PID.TID 0000.0001) >     1.9047, 1.9046, 1.9047, 1.9047, 1.9047, 1.9047, 1.9047, 1.9047,
(PID.TID 0000.0001) >     1.9047, 1.9047, 1.9047, 1.9047, 1.9048, 1.9047, 1.9047, 1.9047,
(PID.TID 0000.0001) >     1.9047, 1.9048, 1.9047, 1.9047, 1.9048, 1.9047, 1.9047, 1.9048,
(PID.TID 0000.0001) >     1.9047, 1.9047, 1.9048, 1.9047, 1.9047, 1.9048, 1.9047, 1.9047,
(PID.TID 0000.0001) >     1.9048, 1.9047, 1.9047, 1.9048, 1.9047, 1.9047, 1.9048, 1.9047,
(PID.TID 0000.0001) >     1.9047, 1.9048, 1.9047, 1.9047, 1.9048, 1.9047, 1.9047, 1.9048,
(PID.TID 0000.0001) >     1.9047, 1.9047, 1.9047, 1.9047, 1.9048, 1.9047, 1.9047, 1.9047,
(PID.TID 0000.0001) >     1.9047, 1.9047, 1.9047, 1.9047, 1.9047, 1.9047, 1.9047, 1.9046,
(PID.TID 0000.0001) >     1.9047, 1.9046, 1.9046, 1.9046, 1.9046, 1.9045, 1.9045, 1.9044,
(PID.TID 0000.0001) >     1.9042, 1.9042, 1.9039, 1.9034, 1.9024, 1.9000, 1.8888, 1.8888,
(PID.TID 0000.0001) > swdown_nlon       = 192,
(PID.TID 0000.0001) > swdown_nlat       = 94,
(PID.TID 0000.0001) >#
(PID.TID 0000.0001) > lwdown_lon0       = 0.00D0,
(PID.TID 0000.0001) > lwdown_lon_inc    = 1.875D0,
(PID.TID 0000.0001) > lwdown_lat0       = -88.5420D0,
(PID.TID 0000.0001) > lwdown_lat_inc    = 1.8888, 1.9000, 1.9024, 1.9034, 1.9039, 1.9042,
(PID.TID 0000.0001) >     1.9042, 1.9044, 1.9045, 1.9045, 1.9046, 1.9046, 1.9046, 1.9046,
(PID.TID 0000.0001) >     1.9047, 1.9046, 1.9047, 1.9047, 1.9047, 1.9047, 1.9047, 1.9047,
(PID.TID 0000.0001) >     1.9047, 1.9047, 1.9047, 1.9047, 1.9048, 1.9047, 1.9047, 1.9047,
(PID.TID 0000.0001) >     1.9047, 1.9048, 1.9047, 1.9047, 1.9048, 1.9047, 1.9047, 1.9048,
(PID.TID 0000.0001) >     1.9047, 1.9047, 1.9048, 1.9047, 1.9047, 1.9048, 1.9047, 1.9047,
(PID.TID 0000.0001) >     1.9048, 1.9047, 1.9047, 1.9048, 1.9047, 1.9047, 1.9048, 1.9047,
(PID.TID 0000.0001) >     1.9047, 1.9048, 1.9047, 1.9047, 1.9048, 1.9047, 1.9047, 1.9048,
(PID.TID 0000.0001) >     1.9047, 1.9047, 1.9047, 1.9047, 1.9048, 1.9047, 1.9047, 1.9047,
(PID.TID 0000.0001) >     1.9047, 1.9047, 1.9047, 1.9047, 1.9047, 1.9047, 1.9047, 1.9046,
(PID.TID 0000.0001) >     1.9047, 1.9046, 1.9046, 1.9046, 1.9046, 1.9045, 1.9045, 1.9044,
(PID.TID 0000.0001) >     1.9042, 1.9042, 1.9039, 1.9034, 1.9024, 1.9000, 1.8888, 1.8888,
(PID.TID 0000.0001) > lwdown_nlon       = 192,
(PID.TID 0000.0001) > lwdown_nlat       = 94,
(PID.TID 0000.0001) >#
(PID.TID 0000.0001) > climsss_lon0      = 0.5,
(PID.TID 0000.0001) > climsss_lon_inc   = 1.,
(PID.TID 0000.0001) > climsss_lat0      = -89.5,
(PID.TID 0000.0001) > climsss_lat_inc   = 179*1.,
(PID.TID 0000.0001) > climsss_nlon      = 360,
(PID.TID 0000.0001) > climsss_nlat      = 180,
(PID.TID 0000.0001) > /
(PID.TID 0000.0001) >#
(PID.TID 0000.0001) > &EXF_NML_OBCS
(PID.TID 0000.0001) > obcsNstartdate1   = 19990219,
(PID.TID 0000.0001) > obcsNstartdate2   = 060000,
(PID.TID 0000.0001) > obcsNperiod       = 2635200.0,
(PID.TID 0000.0001) >#
(PID.TID 0000.0001) > obcsEstartdate1   = 19990219,
(PID.TID 0000.0001) > obcsEstartdate2   = 060000,
(PID.TID 0000.0001) > obcsEperiod       = 2635200.0,
(PID.TID 0000.0001) >#
(PID.TID 0000.0001) > obcsWstartdate1   = 19990219,
(PID.TID 0000.0001) > obcsWstartdate2   = 060000,
(PID.TID 0000.0001) > obcsWperiod       = 2635200.0,
(PID.TID 0000.0001) > /
(PID.TID 0000.0001) 
(PID.TID 0000.0001) EXF_READPARMS: reading EXF_NML_01
(PID.TID 0000.0001) EXF_READPARMS: reading EXF_NML_02
(PID.TID 0000.0001) EXF_READPARMS: reading EXF_NML_03
(PID.TID 0000.0001) EXF_READPARMS: reading EXF_NML_04
(PID.TID 0000.0001) EXF_READPARMS: reading EXF_NML_OBCS
(PID.TID 0000.0001) EXF_READPARMS: finished reading data.exf
(PID.TID 0000.0001)  KPP_INIT: opening data.kpp
(PID.TID 0000.0001)  OPEN_COPY_DATA_FILE: opening file data.kpp
(PID.TID 0000.0001) // =======================================================
(PID.TID 0000.0001) // Parameter file "data.kpp"
(PID.TID 0000.0001) // =======================================================
(PID.TID 0000.0001) ># KPP parameters
(PID.TID 0000.0001) > &KPP_PARM01
(PID.TID 0000.0001) > KPPmixingMaps   = .FALSE.,
(PID.TID 0000.0001) > KPPwriteState   = .FALSE.,
(PID.TID 0000.0001) > kpp_dumpFreq    = 0.
(PID.TID 0000.0001) > kpp_tavefreq    = 0.
(PID.TID 0000.0001) > Ricr            = 0.3559
(PID.TID 0000.0001) > Riinfty         = 0.6998
(PID.TID 0000.0001) > /
(PID.TID 0000.0001) 
(PID.TID 0000.0001)  KPP_INIT: finished reading data.kpp
(PID.TID 0000.0001) 
(PID.TID 0000.0001)  SEAICE_READPARMS: opening data.seaice
(PID.TID 0000.0001)  OPEN_COPY_DATA_FILE: opening file data.seaice
(PID.TID 0000.0001) // =======================================================
(PID.TID 0000.0001) // Parameter file "data.seaice"
(PID.TID 0000.0001) // =======================================================
(PID.TID 0000.0001) ># SEAICE parameters
(PID.TID 0000.0001) > &SEAICE_PARM01
(PID.TID 0000.0001) >      SEAICE_dryIceAlb   = 0.8756,
(PID.TID 0000.0001) >      SEAICE_wetIceAlb   = 0.7856,
(PID.TID 0000.0001) >      SEAICE_drySnowAlb  = 0.9656,
(PID.TID 0000.0001) >      SEAICE_wetSnowAlb  = 0.8256,
(PID.TID 0000.0001) >      SEAICE_waterAlbedo = 0.2756,
(PID.TID 0000.0001) >      SEAICE_strength    = 2.6780e+04,
(PID.TID 0000.0001) >      OCEAN_drag         = 8.1541e-04,
(PID.TID 0000.0001) >      SEAICE_waterDrag   = 5.3508,
(PID.TID 0000.0001) >      LSR_ERROR          = 1e-13,
(PID.TID 0000.0001) >      SEAICEuseDYNAMICS  = .TRUE.,
(PID.TID 0000.0001) >      HeffFile           = '',
(PID.TID 0000.0001) >      SEAICE_freeze      = -1.7348,
(PID.TID 0000.0001) >      MIN_ATEMP          = -40.,
(PID.TID 0000.0001) >      MIN_TICE           = -40.,
(PID.TID 0000.0001) >#      SEAICE_clipVelocities = .TRUE.,
(PID.TID 0000.0001) >      SEAICEadvSalt      = .FALSE.,
(PID.TID 0000.0001) >      SEAICEadvAge       = .FALSE.,
(PID.TID 0000.0001) >      SEAICEadvSnow      = .TRUE.,
(PID.TID 0000.0001) >      SEAICEuseFlooding  = .TRUE.,
(PID.TID 0000.0001) >      SIsalFrac          = 0.3,
(PID.TID 0000.0001) >      ICE2WATR           = 0.92,
(PID.TID 0000.0001) >#      SEAICE_deltaTevp   = 1.,
(PID.TID 0000.0001) >#      SEAICE_evpTauRelax = 3600.,
(PID.TID 0000.0001) >#      SEAICE_evpDampC    = 615.,
(PID.TID 0000.0001) ># for backward compatibility only:
(PID.TID 0000.0001) > SEAICE_cpAir       = 1.0039560439560439e+03,
(PID.TID 0000.0001) > SEAICE_lhSublim    = 2.8340219780219775e+06,
(PID.TID 0000.0001) > SEAICE_rhoAir      = 1.3E0,
(PID.TID 0000.0001) > /
(PID.TID 0000.0001) 
(PID.TID 0000.0001)  SEAICE_READPARMS: finished reading data.seaice
(PID.TID 0000.0001) 
(PID.TID 0000.0001) // =======================================================
(PID.TID 0000.0001) // Seaice configuration (SEAICE_PARM01) >>> START <<<
(PID.TID 0000.0001) // =======================================================
(PID.TID 0000.0001) 
(PID.TID 0000.0001) model grid type   = /* type of sea ice model grid */
(PID.TID 0000.0001)               'C-GRID'
(PID.TID 0000.0001)     ;
(PID.TID 0000.0001) SEAICEwriteState  = /* write sea ice state to file */
(PID.TID 0000.0001)                   F
(PID.TID 0000.0001)     ;
(PID.TID 0000.0001) SEAICEuseDYNAMICS = /* use dynamics */
(PID.TID 0000.0001)                   T
(PID.TID 0000.0001)     ;
(PID.TID 0000.0001) SEAICEuseTEM      = /* use truncated ellipse rheology */
(PID.TID 0000.0001)                   F
(PID.TID 0000.0001)     ;
(PID.TID 0000.0001) SEAICEuseMetricTerms = /* use metric terms */
(PID.TID 0000.0001)                   T
(PID.TID 0000.0001)     ;
(PID.TID 0000.0001) SEAICE_no_slip    = /* no slip boundary conditions */
(PID.TID 0000.0001)                   F
(PID.TID 0000.0001)     ;
(PID.TID 0000.0001) SEAICE_maskRHS    = /* mask RHS of solver */
(PID.TID 0000.0001)                   F
(PID.TID 0000.0001)     ;
(PID.TID 0000.0001) SEAICE_clipVeloctities = /* impose max. vels. */
(PID.TID 0000.0001)                   F
(PID.TID 0000.0001)     ;
(PID.TID 0000.0001) useHB87stressCoupling  = /* altern. ice-ocean stress */
(PID.TID 0000.0001)                   F
(PID.TID 0000.0001)     ;
(PID.TID 0000.0001) SEAICErestoreUnderIce  = /* restore T and S under ice */
(PID.TID 0000.0001)                   F
(PID.TID 0000.0001)     ;
(PID.TID 0000.0001) usePW79thermodynamics  = /* default 0-layer TD */
(PID.TID 0000.0001)                   T
(PID.TID 0000.0001)     ;
(PID.TID 0000.0001) SEAICEareaFormula = /* ice cover formula */
(PID.TID 0000.0001)                       1
(PID.TID 0000.0001)     ;
(PID.TID 0000.0001) SEAICEadvHeff = /* advect effective ice thickness */
(PID.TID 0000.0001)                   T
(PID.TID 0000.0001)     ;
(PID.TID 0000.0001) SEAICEadvArea = /* advect fractional ice area */
(PID.TID 0000.0001)                   T
(PID.TID 0000.0001)     ;
(PID.TID 0000.0001) SEAICEadvSnow = /* advect snow layer together with ice */
(PID.TID 0000.0001)                   T
(PID.TID 0000.0001)     ;
(PID.TID 0000.0001) SEAICEadvSalt = /* advect salinity together with ice */
(PID.TID 0000.0001)                   F
(PID.TID 0000.0001)     ;
(PID.TID 0000.0001) SEAICEuseFlooding = /* turn submerged snow into ice */
(PID.TID 0000.0001)                   T
(PID.TID 0000.0001)     ;
(PID.TID 0000.0001) LAD               = /* time stepping scheme */
(PID.TID 0000.0001)                       2
(PID.TID 0000.0001)     ;
(PID.TID 0000.0001) IMAX_TICE         = /* iterations for ice heat budget */
(PID.TID 0000.0001)                      10
(PID.TID 0000.0001)     ;
(PID.TID 0000.0001) SEAICEadvScheme   = /* advection scheme for ice */
(PID.TID 0000.0001)                       2
(PID.TID 0000.0001)     ;
(PID.TID 0000.0001) SEAICEuseFluxForm = /* advection in FV flux form */
(PID.TID 0000.0001)                   F
(PID.TID 0000.0001)     ;
(PID.TID 0000.0001) SEAICEadvSchArea   = /* advection scheme for area */
(PID.TID 0000.0001)                       2
(PID.TID 0000.0001)     ;
(PID.TID 0000.0001) SEAICEadvSchHeff   = /* advection scheme for thickness */
(PID.TID 0000.0001)                       2
(PID.TID 0000.0001)     ;
(PID.TID 0000.0001) SEAICEadvSchSnow   = /* advection scheme for snow */
(PID.TID 0000.0001)                       2
(PID.TID 0000.0001)     ;
(PID.TID 0000.0001) SEAICE_deltaTtherm= /* thermodynamic timestep */
(PID.TID 0000.0001)                 1.200000000000000E+03
(PID.TID 0000.0001)     ;
(PID.TID 0000.0001) SEAICE_deltaTdyn  = /* dynamic timestep */
(PID.TID 0000.0001)                 1.200000000000000E+03
(PID.TID 0000.0001)     ;
(PID.TID 0000.0001) SEAICE_availHeatFrac = /* fraction used from melting */
(PID.TID 0000.0001)                 1.000000000000000E+00
(PID.TID 0000.0001)     ;
(PID.TID 0000.0001) SEAICE_gamma_t    = /* melting timescale due to warm ML*/
(PID.TID 0000.0001)                 1.234567000000000E+05
(PID.TID 0000.0001)     ;
(PID.TID 0000.0001) SEAICE_zetaMin    = /* lower bound for viscosity */
(PID.TID 0000.0001)                 0.000000000000000E+00
(PID.TID 0000.0001)     ;
(PID.TID 0000.0001) SEAICE_monFreq  = /* monitor frequency */
(PID.TID 0000.0001)                 1.200000000000000E+03
(PID.TID 0000.0001)     ;
(PID.TID 0000.0001) SEAICE_dumpFreq   = /* dump frequency */
(PID.TID 0000.0001)                 0.000000000000000E+00
(PID.TID 0000.0001)     ;
(PID.TID 0000.0001) SEAICE_taveFreq   = /* time-averaging frequency */
(PID.TID 0000.0001)                 0.000000000000000E+00
(PID.TID 0000.0001)     ;
(PID.TID 0000.0001) SEAICE_mon_stdio  = /* write monitor to std-outp */
(PID.TID 0000.0001)                   T
(PID.TID 0000.0001)     ;
(PID.TID 0000.0001) SEAICE_dump_mdsio = /* write snap-shot   using MDSIO */
(PID.TID 0000.0001)                   T
(PID.TID 0000.0001)     ;
(PID.TID 0000.0001) SEAICE_tave_mdsio = /* write TimeAverage using MDSIO */
(PID.TID 0000.0001)                   T
(PID.TID 0000.0001)     ;
(PID.TID 0000.0001) SEAICE_mon_mnc    = /* write monitor to netcdf file */
(PID.TID 0000.0001)                   F
(PID.TID 0000.0001)     ;
(PID.TID 0000.0001) SEAICE_dump_mnc   = /* write snap-shot   using MNC */
(PID.TID 0000.0001)                   F
(PID.TID 0000.0001)     ;
(PID.TID 0000.0001) SEAICE_tave_mnc   = /* write TimeAverage using MNC */
(PID.TID 0000.0001)                   F
(PID.TID 0000.0001)     ;
(PID.TID 0000.0001) SEAICE_initialHEFF= /* initial sea-ice thickness */
(PID.TID 0000.0001)                 0.000000000000000E+00
(PID.TID 0000.0001)     ;
(PID.TID 0000.0001) OCEAN_drag        = /* air-ocean drag coefficient */
(PID.TID 0000.0001)                 8.154100000000000E-04
(PID.TID 0000.0001)     ;
(PID.TID 0000.0001) SEAICE_drag       = /* air-ice drag coefficient */
(PID.TID 0000.0001)                 2.000000000000000E-03
(PID.TID 0000.0001)     ;
(PID.TID 0000.0001) SEAICE_waterDrag  = /* water-ice drag * density */
(PID.TID 0000.0001)                 5.350800000000000E+00
(PID.TID 0000.0001)     ;
(PID.TID 0000.0001) SEAICE_dryIceAlb  = /* winter albedo */
(PID.TID 0000.0001)                 8.756000000000000E-01
(PID.TID 0000.0001)     ;
(PID.TID 0000.0001) SEAICE_wetIceAlb  = /* summer albedo */
(PID.TID 0000.0001)                 7.856000000000000E-01
(PID.TID 0000.0001)     ;
(PID.TID 0000.0001) SEAICE_drySnowAlb = /* dry snow albedo */
(PID.TID 0000.0001)                 9.656000000000000E-01
(PID.TID 0000.0001)     ;
(PID.TID 0000.0001) SEAICE_wetSnowAlb = /* wet snow albedo */
(PID.TID 0000.0001)                 8.256000000000000E-01
(PID.TID 0000.0001)     ;
(PID.TID 0000.0001) HO                = /* demarcation ice thickness */
(PID.TID 0000.0001)                 5.000000000000000E-01
(PID.TID 0000.0001)     ;
(PID.TID 0000.0001) SEAICE_drag_south      = /* Southern Ocean SEAICE_drag */
(PID.TID 0000.0001)                 2.000000000000000E-03
(PID.TID 0000.0001)     ;
(PID.TID 0000.0001) SEAICE_waterDrag_south = /* Southern Ocean waterDrag */
(PID.TID 0000.0001)                 5.350800000000000E+00
(PID.TID 0000.0001)     ;
(PID.TID 0000.0001) SEAICE_dryIceAlb_south = /* Southern Ocean dryIceAlb */
(PID.TID 0000.0001)                 8.756000000000000E-01
(PID.TID 0000.0001)     ;
(PID.TID 0000.0001) SEAICE_wetIceAlb_south = /* Southern Ocean wetIceAlb */
(PID.TID 0000.0001)                 7.856000000000000E-01
(PID.TID 0000.0001)     ;
(PID.TID 0000.0001) SEAICE_drySnowAlb_south= /* Southern Ocean drySnowAlb */
(PID.TID 0000.0001)                 9.656000000000000E-01
(PID.TID 0000.0001)     ;
(PID.TID 0000.0001) SEAICE_wetSnowAlb_south= /* Southern Ocean wetSnowAlb */
(PID.TID 0000.0001)                 8.256000000000000E-01
(PID.TID 0000.0001)     ;
(PID.TID 0000.0001) HO_south               = /* Southern Ocean HO */
(PID.TID 0000.0001)                 5.000000000000000E-01
(PID.TID 0000.0001)     ;
(PID.TID 0000.0001) SEAICE_waterAlbedo= /* water albedo */
(PID.TID 0000.0001)                 2.756000000000000E-01
(PID.TID 0000.0001)     ;
(PID.TID 0000.0001) SEAICE_strength   = /* sea-ice strength Pstar */
(PID.TID 0000.0001)                 2.678000000000000E+04
(PID.TID 0000.0001)     ;
(PID.TID 0000.0001) SEAICE_cpAir      = /* heat capacity of air */
(PID.TID 0000.0001)                 1.003956043956044E+03
(PID.TID 0000.0001)     ;
(PID.TID 0000.0001) SEAICE_dalton     = /* constant dalton number */
(PID.TID 0000.0001)                 1.750000000000000E-03
(PID.TID 0000.0001)     ;
(PID.TID 0000.0001) SEAICE_lhEvap     = /* latent heat of evaporation */
(PID.TID 0000.0001)                 2.500000000000000E+06
(PID.TID 0000.0001)     ;
(PID.TID 0000.0001) SEAICE_lhFusion   = /* latent heat of fusion */
(PID.TID 0000.0001)                 3.340000000000000E+05
(PID.TID 0000.0001)     ;
(PID.TID 0000.0001) SEAICE_lhSublim   = /* latent heat of sublimation */
(PID.TID 0000.0001)                 2.834021978021977E+06
(PID.TID 0000.0001)     ;
(PID.TID 0000.0001) SEAICE_iceConduct = /* sea-ice conductivity */
(PID.TID 0000.0001)                 2.165600000000000E+00
(PID.TID 0000.0001)     ;
(PID.TID 0000.0001) SEAICE_snowConduct= /* snow conductivity */
(PID.TID 0000.0001)                 3.100000000000000E-01
(PID.TID 0000.0001)     ;
(PID.TID 0000.0001) SEAICE_emissivity = /* Stefan-Boltzman * emissivity */
(PID.TID 0000.0001)                 5.500000000000000E-08
(PID.TID 0000.0001)     ;
(PID.TID 0000.0001) SEAICE_snowThick  = /* cutoff snow thickness */
(PID.TID 0000.0001)                 1.500000000000000E-01
(PID.TID 0000.0001)     ;
(PID.TID 0000.0001) SEAICE_shortwave  = /* penetration shortwave radiation */
(PID.TID 0000.0001)                 3.000000000000000E-01
(PID.TID 0000.0001)     ;
(PID.TID 0000.0001) SEAICE_freeze     = /* freezing temp. of sea water */
(PID.TID 0000.0001)                -1.734800000000000E+00
(PID.TID 0000.0001)     ;
(PID.TID 0000.0001) Initial sea-ice concentration is read from file:
(PID.TID 0000.0001)    >>    <<
(PID.TID 0000.0001) Initial sea-ice thickness is read from file:
(PID.TID 0000.0001)    >>    <<
(PID.TID 0000.0001)     ;
(PID.TID 0000.0001) SOLV_MAX_ITERS    = /* max. number of LSR solver steps */
(PID.TID 0000.0001)                    1500
(PID.TID 0000.0001)     ;
(PID.TID 0000.0001) SOLV_NCHECK       = /* test interval for LSR solver */
(PID.TID 0000.0001)                       2
(PID.TID 0000.0001)     ;
(PID.TID 0000.0001) NPSEUDOTIMESTEPS  = /* num. of extra pseudo time steps */
(PID.TID 0000.0001)                       2
(PID.TID 0000.0001)     ;
(PID.TID 0000.0001) LSR_ERROR         = /* sets accuracy of LSR solver */
(PID.TID 0000.0001)                 1.000000000000000E-13
(PID.TID 0000.0001)     ;
(PID.TID 0000.0001) DIFF1             = /* parameter used in advect.F */
(PID.TID 0000.0001)                 4.000000000000000E-03
(PID.TID 0000.0001)     ;
(PID.TID 0000.0001) A22               = /* parameter used in growth.F */
(PID.TID 0000.0001)                 1.500000000000000E-01
(PID.TID 0000.0001)     ;
(PID.TID 0000.0001) MAX_HEFF has no effect because SEAICE_CAP_HEFF is undefined
(PID.TID 0000.0001) MAX_HEFF          = /* maximum ice thickness */
(PID.TID 0000.0001)                 1.000000000000000E+01
(PID.TID 0000.0001)     ;
(PID.TID 0000.0001) MIN_ATEMP         = /* minimum air temperature */
(PID.TID 0000.0001)                -4.000000000000000E+01
(PID.TID 0000.0001)     ;
(PID.TID 0000.0001) MIN_LWDOWN        = /* minimum downward longwave */
(PID.TID 0000.0001)                 6.000000000000000E+01
(PID.TID 0000.0001)     ;
(PID.TID 0000.0001) MAX_TICE          = /* maximum ice temperature */
(PID.TID 0000.0001)                 3.000000000000000E+01
(PID.TID 0000.0001)     ;
(PID.TID 0000.0001) MIN_TICE          = /* minimum ice temperature */
(PID.TID 0000.0001)                -4.000000000000000E+01
(PID.TID 0000.0001)     ;
(PID.TID 0000.0001) SEAICE_EPS        = /* reduce derivative singularities */
(PID.TID 0000.0001)                 1.000000000000000E-10
(PID.TID 0000.0001)     ;
(PID.TID 0000.0001) // =======================================================
(PID.TID 0000.0001) // Seaice configuration (SEAICE_PARM01) >>> END <<<
(PID.TID 0000.0001) // =======================================================
(PID.TID 0000.0001)  OBCS_READPARMS: opening data.obcs
(PID.TID 0000.0001)  OPEN_COPY_DATA_FILE: opening file data.obcs
(PID.TID 0000.0001) // =======================================================
(PID.TID 0000.0001) // Parameter file "data.obcs"
(PID.TID 0000.0001) // =======================================================
(PID.TID 0000.0001) >#
(PID.TID 0000.0001) ># ***************
(PID.TID 0000.0001) ># Open boundaries
(PID.TID 0000.0001) ># ***************
(PID.TID 0000.0001) > &OBCS_PARM01
(PID.TID 0000.0001) > OB_Jnorth =   76*72,
(PID.TID 0000.0001) > OB_Iwest  =   72*1,
(PID.TID 0000.0001) >#
(PID.TID 0000.0001) >#OBCSfixTopo=.false.,
(PID.TID 0000.0001) >#
(PID.TID 0000.0001) > useOBCSprescribe=.TRUE.,
(PID.TID 0000.0001) >#
(PID.TID 0000.0001) > OBNsFile='OBNs_baltic_76x72.stable',
(PID.TID 0000.0001) > OBNtFile='OBNt_baltic_76x72.stable',
(PID.TID 0000.0001) > OBNuFile='OBNu_baltic_76x72.bin',
(PID.TID 0000.0001) > OBNvFile='OBNv_baltic_76x72.bin',
(PID.TID 0000.0001) > OBWsFile='OBWs_baltic_76x72.stable',
(PID.TID 0000.0001) > OBWtFile='OBWt_baltic_76x72.stable',
(PID.TID 0000.0001) > OBWuFile='OBWu_baltic_76x72.bin',
(PID.TID 0000.0001) > OBWvFile='OBWv_baltic_76x72.bin',
(PID.TID 0000.0001) > OBNptrFile(1)='OBN_PO4_76x72x24_baltic_128.bin',
(PID.TID 0000.0001) > OBWptrFile(1)='OBW_PO4_76x72x24_baltic_128.bin',
(PID.TID 0000.0001) > OBNptrFile(2)='OBN_NO3_76x72x24_baltic_128.bin',
(PID.TID 0000.0001) > OBWptrFile(2)='OBW_NO3_76x72x24_baltic_128.bin',
(PID.TID 0000.0001) > OBNptrFile(3)='OBN_FeT_76x72x24_baltic_128.bin',
(PID.TID 0000.0001) > OBWptrFile(3)='OBW_FeT_76x72x24_baltic_128.bin',
(PID.TID 0000.0001) > OBNptrFile(4)='OBN_SiO2_76x72x24_baltic_128.bin',
(PID.TID 0000.0001) > OBWptrFile(4)='OBW_SiO2_76x72x24_baltic_128.bin',
(PID.TID 0000.0001) > OBNptrFile(5)='OBN_DOP_76x72x24_baltic_128.bin',
(PID.TID 0000.0001) > OBWptrFile(5)='OBW_DOP_76x72x24_baltic_128.bin',
(PID.TID 0000.0001) > OBNptrFile(6)='OBN_DON_76x72x24_baltic_128.bin',
(PID.TID 0000.0001) > OBWptrFile(6)='OBW_DON_76x72x24_baltic_128.bin',
(PID.TID 0000.0001) > OBNptrFile(7)='OBN_DOFe_76x72x24_baltic_128.bin',
(PID.TID 0000.0001) > OBWptrFile(7)='OBW_DOFe_76x72x24_baltic_128.bin',
(PID.TID 0000.0001) > OBNptrFile(8)='OBN_ZOO1P_76x72x24_baltic_128.bin',
(PID.TID 0000.0001) > OBWptrFile(8)='OBW_ZOO1P_76x72x24_baltic_128.bin',
(PID.TID 0000.0001) > OBNptrFile(9)='OBN_ZOO1N_76x72x24_baltic_128.bin',
(PID.TID 0000.0001) > OBWptrFile(9)='OBW_ZOO1N_76x72x24_baltic_128.bin',
(PID.TID 0000.0001) > OBNptrFile(10)='OBN_ZOO1Fe_76x72x24_baltic_128.bin',
(PID.TID 0000.0001) > OBWptrFile(10)='OBW_ZOO1Fe_76x72x24_baltic_128.bin',
(PID.TID 0000.0001) > OBNptrFile(11)='OBN_ZOO1Si_76x72x24_baltic_128.bin',
(PID.TID 0000.0001) > OBWptrFile(11)='OBW_ZOO1Si_76x72x24_baltic_128.bin',
(PID.TID 0000.0001) > OBNptrFile(12)='OBN_ZOO2P_76x72x24_baltic_128.bin',
(PID.TID 0000.0001) > OBWptrFile(12)='OBW_ZOO2P_76x72x24_baltic_128.bin',
(PID.TID 0000.0001) > OBNptrFile(13)='OBN_ZOO2N_76x72x24_baltic_128.bin',
(PID.TID 0000.0001) > OBWptrFile(13)='OBW_ZOO2N_76x72x24_baltic_128.bin',
(PID.TID 0000.0001) > OBNptrFile(14)='OBN_ZOO2Fe_76x72x24_baltic_128.bin',
(PID.TID 0000.0001) > OBWptrFile(14)='OBW_ZOO2Fe_76x72x24_baltic_128.bin',
(PID.TID 0000.0001) > OBNptrFile(15)='OBN_ZOO2Si_76x72x24_baltic_128.bin',
(PID.TID 0000.0001) > OBWptrFile(15)='OBW_ZOO2Si_76x72x24_baltic_128.bin',
(PID.TID 0000.0001) > OBNptrFile(16)='OBN_POP_76x72x24_baltic_128.bin',
(PID.TID 0000.0001) > OBWptrFile(16)='OBW_POP_76x72x24_baltic_128.bin',
(PID.TID 0000.0001) > OBNptrFile(17)='OBN_PON_76x72x24_baltic_128.bin',
(PID.TID 0000.0001) > OBWptrFile(17)='OBW_PON_76x72x24_baltic_128.bin',
(PID.TID 0000.0001) > OBNptrFile(18)='OBN_POFe_76x72x24_baltic_128.bin',
(PID.TID 0000.0001) > OBWptrFile(18)='OBW_POFe_76x72x24_baltic_128.bin',
(PID.TID 0000.0001) > OBNptrFile(19)='OBN_POSi_76x72x24_baltic_128.bin',
(PID.TID 0000.0001) > OBWptrFile(19)='OBW_POSi_76x72x24_baltic_128.bin',
(PID.TID 0000.0001) > OBNptrFile(20)='OBN_NH4_76x72x24_baltic_128.bin',
(PID.TID 0000.0001) > OBWptrFile(20)='OBW_NH4_76x72x24_baltic_128.bin',
(PID.TID 0000.0001) > OBNptrFile(21)='OBN_NO2_76x72x24_baltic_128.bin',
(PID.TID 0000.0001) > OBWptrFile(21)='OBW_NO2_76x72x24_baltic_128.bin',
(PID.TID 0000.0001) > OBNptrFile(22)='OBN_Phy01_76x72x24_baltic_128.bin',
(PID.TID 0000.0001) > OBWptrFile(22)='OBW_Phy01_76x72x24_baltic_128.bin',
(PID.TID 0000.0001) > OBNptrFile(23)='OBN_Phy02_76x72x24_baltic_128.bin',
(PID.TID 0000.0001) > OBWptrFile(23)='OBW_Phy02_76x72x24_baltic_128.bin',
(PID.TID 0000.0001) > OBNptrFile(24)='OBN_Phy03_76x72x24_baltic_128.bin',
(PID.TID 0000.0001) > OBWptrFile(24)='OBW_Phy03_76x72x24_baltic_128.bin',
(PID.TID 0000.0001) > OBNptrFile(25)='OBN_Phy04_76x72x24_baltic_128.bin',
(PID.TID 0000.0001) > OBWptrFile(25)='OBW_Phy04_76x72x24_baltic_128.bin',
(PID.TID 0000.0001) > OBNptrFile(26)='OBN_Phy05_76x72x24_baltic_128.bin',
(PID.TID 0000.0001) > OBWptrFile(26)='OBW_Phy05_76x72x24_baltic_128.bin',
(PID.TID 0000.0001) > OBNptrFile(27)='OBN_Phy06_76x72x24_baltic_128.bin',
(PID.TID 0000.0001) > OBWptrFile(27)='OBW_Phy06_76x72x24_baltic_128.bin',
(PID.TID 0000.0001) > OBNptrFile(28)='OBN_Phy07_76x72x24_baltic_128.bin',
(PID.TID 0000.0001) > OBWptrFile(28)='OBW_Phy07_76x72x24_baltic_128.bin',
(PID.TID 0000.0001) > OBNptrFile(29)='OBN_Phy08_76x72x24_baltic_128.bin',
(PID.TID 0000.0001) > OBWptrFile(29)='OBW_Phy08_76x72x24_baltic_128.bin',
(PID.TID 0000.0001) > OBNptrFile(30)='OBN_Phy09_76x72x24_baltic_128.bin',
(PID.TID 0000.0001) > OBWptrFile(30)='OBW_Phy09_76x72x24_baltic_128.bin',
(PID.TID 0000.0001) > OBNptrFile(31)='OBN_Phy10_76x72x24_baltic_128.bin',
(PID.TID 0000.0001) > OBWptrFile(31)='OBW_Phy10_76x72x24_baltic_128.bin',
(PID.TID 0000.0001) > OBNptrFile(32)='OBN_Phy11_76x72x24_baltic_128.bin',
(PID.TID 0000.0001) > OBWptrFile(32)='OBW_Phy11_76x72x24_baltic_128.bin',
(PID.TID 0000.0001) > OBNptrFile(33)='OBN_Phy12_76x72x24_baltic_128.bin',
(PID.TID 0000.0001) > OBWptrFile(33)='OBW_Phy12_76x72x24_baltic_128.bin',
(PID.TID 0000.0001) > OBNptrFile(34)='OBN_Phy13_76x72x24_baltic_128.bin',
(PID.TID 0000.0001) > OBWptrFile(34)='OBW_Phy13_76x72x24_baltic_128.bin',
(PID.TID 0000.0001) > OBNptrFile(35)='OBN_Phy14_76x72x24_baltic_128.bin',
(PID.TID 0000.0001) > OBWptrFile(35)='OBW_Phy14_76x72x24_baltic_128.bin',
(PID.TID 0000.0001) > OBNptrFile(36)='OBN_Phy15_76x72x24_baltic_128.bin',
(PID.TID 0000.0001) > OBWptrFile(36)='OBW_Phy15_76x72x24_baltic_128.bin',
(PID.TID 0000.0001) > OBNptrFile(37)='OBN_Phy16_76x72x24_baltic_128.bin',
(PID.TID 0000.0001) > OBWptrFile(37)='OBW_Phy16_76x72x24_baltic_128.bin',
(PID.TID 0000.0001) > OBNptrFile(38)='OBN_Phy17_76x72x24_baltic_128.bin',
(PID.TID 0000.0001) > OBWptrFile(38)='OBW_Phy17_76x72x24_baltic_128.bin',
(PID.TID 0000.0001) > OBNptrFile(39)='OBN_Phy18_76x72x24_baltic_128.bin',
(PID.TID 0000.0001) > OBWptrFile(39)='OBW_Phy18_76x72x24_baltic_128.bin',
(PID.TID 0000.0001) > OBNptrFile(40)='OBN_Phy19_76x72x24_baltic_128.bin',
(PID.TID 0000.0001) > OBWptrFile(40)='OBW_Phy19_76x72x24_baltic_128.bin',
(PID.TID 0000.0001) > OBNptrFile(41)='OBN_Phy20_76x72x24_baltic_128.bin',
(PID.TID 0000.0001) > OBWptrFile(41)='OBW_Phy20_76x72x24_baltic_128.bin',
(PID.TID 0000.0001) > OBNptrFile(42)='OBN_Phy21_76x72x24_baltic_128.bin',
(PID.TID 0000.0001) > OBWptrFile(42)='OBW_Phy21_76x72x24_baltic_128.bin',
(PID.TID 0000.0001) > OBNptrFile(43)='OBN_Phy22_76x72x24_baltic_128.bin',
(PID.TID 0000.0001) > OBWptrFile(43)='OBW_Phy22_76x72x24_baltic_128.bin',
(PID.TID 0000.0001) > OBNptrFile(44)='OBN_Phy23_76x72x24_baltic_128.bin',
(PID.TID 0000.0001) > OBWptrFile(44)='OBW_Phy23_76x72x24_baltic_128.bin',
(PID.TID 0000.0001) > OBNptrFile(45)='OBN_Phy24_76x72x24_baltic_128.bin',
(PID.TID 0000.0001) > OBWptrFile(45)='OBW_Phy24_76x72x24_baltic_128.bin',
(PID.TID 0000.0001) > OBNptrFile(46)='OBN_Phy25_76x72x24_baltic_128.bin',
(PID.TID 0000.0001) > OBWptrFile(46)='OBW_Phy25_76x72x24_baltic_128.bin',
(PID.TID 0000.0001) > OBNptrFile(47)='OBN_Phy26_76x72x24_baltic_128.bin',
(PID.TID 0000.0001) > OBWptrFile(47)='OBW_Phy26_76x72x24_baltic_128.bin',
(PID.TID 0000.0001) > OBNptrFile(48)='OBN_Phy27_76x72x24_baltic_128.bin',
(PID.TID 0000.0001) > OBWptrFile(48)='OBW_Phy27_76x72x24_baltic_128.bin',
(PID.TID 0000.0001) > OBNptrFile(49)='OBN_Phy28_76x72x24_baltic_128.bin',
(PID.TID 0000.0001) > OBWptrFile(49)='OBW_Phy28_76x72x24_baltic_128.bin',
(PID.TID 0000.0001) > OBNptrFile(50)='OBN_Phy29_76x72x24_baltic_128.bin',
(PID.TID 0000.0001) > OBWptrFile(50)='OBW_Phy29_76x72x24_baltic_128.bin',
(PID.TID 0000.0001) > OBNptrFile(51)='OBN_Phy30_76x72x24_baltic_128.bin',
(PID.TID 0000.0001) > OBWptrFile(51)='OBW_Phy30_76x72x24_baltic_128.bin',
(PID.TID 0000.0001) > OBNptrFile(52)='OBN_Phy31_76x72x24_baltic_128.bin',
(PID.TID 0000.0001) > OBWptrFile(52)='OBW_Phy31_76x72x24_baltic_128.bin',
(PID.TID 0000.0001) > OBNptrFile(53)='OBN_Phy32_76x72x24_baltic_128.bin',
(PID.TID 0000.0001) > OBWptrFile(53)='OBW_Phy32_76x72x24_baltic_128.bin',
(PID.TID 0000.0001) > OBNptrFile(54)='OBN_Phy33_76x72x24_baltic_128.bin',
(PID.TID 0000.0001) > OBWptrFile(54)='OBW_Phy33_76x72x24_baltic_128.bin',
(PID.TID 0000.0001) > OBNptrFile(55)='OBN_Phy34_76x72x24_baltic_128.bin',
(PID.TID 0000.0001) > OBWptrFile(55)='OBW_Phy34_76x72x24_baltic_128.bin',
(PID.TID 0000.0001) > OBNptrFile(56)='OBN_Phy35_76x72x24_baltic_128.bin',
(PID.TID 0000.0001) > OBWptrFile(56)='OBW_Phy35_76x72x24_baltic_128.bin',
(PID.TID 0000.0001) > OBNptrFile(57)='OBN_Phy36_76x72x24_baltic_128.bin',
(PID.TID 0000.0001) > OBWptrFile(57)='OBW_Phy36_76x72x24_baltic_128.bin',
(PID.TID 0000.0001) > OBNptrFile(58)='OBN_Phy37_76x72x24_baltic_128.bin',
(PID.TID 0000.0001) > OBWptrFile(58)='OBW_Phy37_76x72x24_baltic_128.bin',
(PID.TID 0000.0001) > OBNptrFile(59)='OBN_Phy38_76x72x24_baltic_128.bin',
(PID.TID 0000.0001) > OBWptrFile(59)='OBW_Phy38_76x72x24_baltic_128.bin',
(PID.TID 0000.0001) > OBNptrFile(60)='OBN_Phy39_76x72x24_baltic_128.bin',
(PID.TID 0000.0001) > OBWptrFile(60)='OBW_Phy39_76x72x24_baltic_128.bin',
(PID.TID 0000.0001) > OBNptrFile(61)='OBN_Phy40_76x72x24_baltic_128.bin',
(PID.TID 0000.0001) > OBWptrFile(61)='OBW_Phy40_76x72x24_baltic_128.bin',
(PID.TID 0000.0001) > OBNptrFile(62)='OBN_Phy41_76x72x24_baltic_128.bin',
(PID.TID 0000.0001) > OBWptrFile(62)='OBW_Phy41_76x72x24_baltic_128.bin',
(PID.TID 0000.0001) > OBNptrFile(63)='OBN_Phy42_76x72x24_baltic_128.bin',
(PID.TID 0000.0001) > OBWptrFile(63)='OBW_Phy42_76x72x24_baltic_128.bin',
(PID.TID 0000.0001) > OBNptrFile(64)='OBN_Phy43_76x72x24_baltic_128.bin',
(PID.TID 0000.0001) > OBWptrFile(64)='OBW_Phy43_76x72x24_baltic_128.bin',
(PID.TID 0000.0001) > OBNptrFile(65)='OBN_Phy44_76x72x24_baltic_128.bin',
(PID.TID 0000.0001) > OBWptrFile(65)='OBW_Phy44_76x72x24_baltic_128.bin',
(PID.TID 0000.0001) > OBNptrFile(66)='OBN_Phy45_76x72x24_baltic_128.bin',
(PID.TID 0000.0001) > OBWptrFile(66)='OBW_Phy45_76x72x24_baltic_128.bin',
(PID.TID 0000.0001) > OBNptrFile(67)='OBN_Phy46_76x72x24_baltic_128.bin',
(PID.TID 0000.0001) > OBWptrFile(67)='OBW_Phy46_76x72x24_baltic_128.bin',
(PID.TID 0000.0001) > OBNptrFile(68)='OBN_Phy47_76x72x24_baltic_128.bin',
(PID.TID 0000.0001) > OBWptrFile(68)='OBW_Phy47_76x72x24_baltic_128.bin',
(PID.TID 0000.0001) > OBNptrFile(69)='OBN_Phy48_76x72x24_baltic_128.bin',
(PID.TID 0000.0001) > OBWptrFile(69)='OBW_Phy48_76x72x24_baltic_128.bin',
(PID.TID 0000.0001) > OBNptrFile(70)='OBN_Phy49_76x72x24_baltic_128.bin',
(PID.TID 0000.0001) > OBWptrFile(70)='OBW_Phy49_76x72x24_baltic_128.bin',
(PID.TID 0000.0001) > OBNptrFile(71)='OBN_Phy50_76x72x24_baltic_128.bin',
(PID.TID 0000.0001) > OBWptrFile(71)='OBW_Phy50_76x72x24_baltic_128.bin',
(PID.TID 0000.0001) > OBNptrFile(72)='OBN_Phy51_76x72x24_baltic_128.bin',
(PID.TID 0000.0001) > OBWptrFile(72)='OBW_Phy51_76x72x24_baltic_128.bin',
(PID.TID 0000.0001) > OBNptrFile(73)='OBN_Phy52_76x72x24_baltic_128.bin',
(PID.TID 0000.0001) > OBWptrFile(73)='OBW_Phy52_76x72x24_baltic_128.bin',
(PID.TID 0000.0001) > OBNptrFile(74)='OBN_Phy53_76x72x24_baltic_128.bin',
(PID.TID 0000.0001) > OBWptrFile(74)='OBW_Phy53_76x72x24_baltic_128.bin',
(PID.TID 0000.0001) > OBNptrFile(75)='OBN_Phy54_76x72x24_baltic_128.bin',
(PID.TID 0000.0001) > OBWptrFile(75)='OBW_Phy54_76x72x24_baltic_128.bin',
(PID.TID 0000.0001) > OBNptrFile(76)='OBN_Phy55_76x72x24_baltic_128.bin',
(PID.TID 0000.0001) > OBWptrFile(76)='OBW_Phy55_76x72x24_baltic_128.bin',
(PID.TID 0000.0001) > OBNptrFile(77)='OBN_Phy56_76x72x24_baltic_128.bin',
(PID.TID 0000.0001) > OBWptrFile(77)='OBW_Phy56_76x72x24_baltic_128.bin',
(PID.TID 0000.0001) > OBNptrFile(78)='OBN_Phy57_76x72x24_baltic_128.bin',
(PID.TID 0000.0001) > OBWptrFile(78)='OBW_Phy57_76x72x24_baltic_128.bin',
(PID.TID 0000.0001) > OBNptrFile(79)='OBN_Phy58_76x72x24_baltic_128.bin',
(PID.TID 0000.0001) > OBWptrFile(79)='OBW_Phy58_76x72x24_baltic_128.bin',
(PID.TID 0000.0001) > OBNptrFile(80)='OBN_Phy59_76x72x24_baltic_128.bin',
(PID.TID 0000.0001) > OBWptrFile(80)='OBW_Phy59_76x72x24_baltic_128.bin',
(PID.TID 0000.0001) > OBNptrFile(81)='OBN_Phy60_76x72x24_baltic_128.bin',
(PID.TID 0000.0001) > OBWptrFile(81)='OBW_Phy60_76x72x24_baltic_128.bin',
(PID.TID 0000.0001) > OBNptrFile(82)='OBN_Phy61_76x72x24_baltic_128.bin',
(PID.TID 0000.0001) > OBWptrFile(82)='OBW_Phy61_76x72x24_baltic_128.bin',
(PID.TID 0000.0001) > OBNptrFile(83)='OBN_Phy62_76x72x24_baltic_128.bin',
(PID.TID 0000.0001) > OBWptrFile(83)='OBW_Phy62_76x72x24_baltic_128.bin',
(PID.TID 0000.0001) > OBNptrFile(84)='OBN_Phy63_76x72x24_baltic_128.bin',
(PID.TID 0000.0001) > OBWptrFile(84)='OBW_Phy63_76x72x24_baltic_128.bin',
(PID.TID 0000.0001) > OBNptrFile(85)='OBN_Phy64_76x72x24_baltic_128.bin',
(PID.TID 0000.0001) > OBWptrFile(85)='OBW_Phy64_76x72x24_baltic_128.bin',
(PID.TID 0000.0001) > OBNptrFile(86)='OBN_Phy65_76x72x24_baltic_128.bin',
(PID.TID 0000.0001) > OBWptrFile(86)='OBW_Phy65_76x72x24_baltic_128.bin',
(PID.TID 0000.0001) > OBNptrFile(87)='OBN_Phy66_76x72x24_baltic_128.bin',
(PID.TID 0000.0001) > OBWptrFile(87)='OBW_Phy66_76x72x24_baltic_128.bin',
(PID.TID 0000.0001) > OBNptrFile(88)='OBN_Phy67_76x72x24_baltic_128.bin',
(PID.TID 0000.0001) > OBWptrFile(88)='OBW_Phy67_76x72x24_baltic_128.bin',
(PID.TID 0000.0001) > OBNptrFile(89)='OBN_Phy68_76x72x24_baltic_128.bin',
(PID.TID 0000.0001) > OBWptrFile(89)='OBW_Phy68_76x72x24_baltic_128.bin',
(PID.TID 0000.0001) > OBNptrFile(90)='OBN_Phy69_76x72x24_baltic_128.bin',
(PID.TID 0000.0001) > OBWptrFile(90)='OBW_Phy69_76x72x24_baltic_128.bin',
(PID.TID 0000.0001) > OBNptrFile(91)='OBN_Phy70_76x72x24_baltic_128.bin',
(PID.TID 0000.0001) > OBWptrFile(91)='OBW_Phy70_76x72x24_baltic_128.bin',
(PID.TID 0000.0001) > OBNptrFile(92)='OBN_Phy71_76x72x24_baltic_128.bin',
(PID.TID 0000.0001) > OBWptrFile(92)='OBW_Phy71_76x72x24_baltic_128.bin',
(PID.TID 0000.0001) > OBNptrFile(93)='OBN_Phy72_76x72x24_baltic_128.bin',
(PID.TID 0000.0001) > OBWptrFile(93)='OBW_Phy72_76x72x24_baltic_128.bin',
(PID.TID 0000.0001) > OBNptrFile(94)='OBN_Phy73_76x72x24_baltic_128.bin',
(PID.TID 0000.0001) > OBWptrFile(94)='OBW_Phy73_76x72x24_baltic_128.bin',
(PID.TID 0000.0001) > OBNptrFile(95)='OBN_Phy74_76x72x24_baltic_128.bin',
(PID.TID 0000.0001) > OBWptrFile(95)='OBW_Phy74_76x72x24_baltic_128.bin',
(PID.TID 0000.0001) > OBNptrFile(96)='OBN_Phy75_76x72x24_baltic_128.bin',
(PID.TID 0000.0001) > OBWptrFile(96)='OBW_Phy75_76x72x24_baltic_128.bin',
(PID.TID 0000.0001) > OBNptrFile(97)='OBN_Phy76_76x72x24_baltic_128.bin',
(PID.TID 0000.0001) > OBWptrFile(97)='OBW_Phy76_76x72x24_baltic_128.bin',
(PID.TID 0000.0001) > OBNptrFile(98)='OBN_Phy77_76x72x24_baltic_128.bin',
(PID.TID 0000.0001) > OBWptrFile(98)='OBW_Phy77_76x72x24_baltic_128.bin',
(PID.TID 0000.0001) > OBNptrFile(99)='OBN_Phy78_76x72x24_baltic_128.bin',
(PID.TID 0000.0001) > OBWptrFile(99)='OBW_Phy78_76x72x24_baltic_128.bin',
(PID.TID 0000.0001) >#
(PID.TID 0000.0001) > /
(PID.TID 0000.0001) >
(PID.TID 0000.0001) ># *****************************************
(PID.TID 0000.0001) ># Orlanski Boundary Condition Parameters.
(PID.TID 0000.0001) ># *****************************************
(PID.TID 0000.0001) ># &OBCS_PARM02
(PID.TID 0000.0001) ># cvelTimeScale = 2000.,
(PID.TID 0000.0001) ># /
(PID.TID 0000.0001) >
(PID.TID 0000.0001) ># *****************************************
(PID.TID 0000.0001) ># Sponge Layer Parameters.
(PID.TID 0000.0001) ># *****************************************
(PID.TID 0000.0001) ># &OBCS_PARM03
(PID.TID 0000.0001) ># Urelaxobcsinner=7776000.E0,
(PID.TID 0000.0001) ># Urelaxobcsbound=2592000.E0,
(PID.TID 0000.0001) ># Vrelaxobcsinner=7776000.E0,
(PID.TID 0000.0001) ># Vrelaxobcsbound=2592000.E0,
(PID.TID 0000.0001) ># spongeThickness=10,
(PID.TID 0000.0001) ># /
(PID.TID 0000.0001) 
(PID.TID 0000.0001)  OBCS_READPARMS: finished reading data.obcs
(PID.TID 0000.0001)  Northern OB global indices : OB_Jnorth =
(PID.TID 0000.0001)    76 @       72                            /* I =  1: 76 */
(PID.TID 0000.0001)  Southern OB global indices : OB_Jsouth =
(PID.TID 0000.0001)    76 @        0                            /* I =  1: 76 */
(PID.TID 0000.0001)  Eastern  OB global indices : OB_Ieast =
(PID.TID 0000.0001)    72 @        0                            /* J =  1: 72 */
(PID.TID 0000.0001)  Western  OB global indices : OB_Iwest =
(PID.TID 0000.0001)    72 @        1                            /* J =  1: 72 */
(PID.TID 0000.0001) 
(PID.TID 0000.0001)  PTRACERS_READPARMS: opening data.ptracers
(PID.TID 0000.0001)  OPEN_COPY_DATA_FILE: opening file data.ptracers
(PID.TID 0000.0001) // =======================================================
(PID.TID 0000.0001) // Parameter file "data.ptracers"
(PID.TID 0000.0001) // =======================================================
(PID.TID 0000.0001) > &PTRACERS_PARM01
(PID.TID 0000.0001) > PTRACERS_numInUse=99,
(PID.TID 0000.0001) ># 366 days == 19930101 060000
(PID.TID 0000.0001) > PTRACERS_Iter0= 26352,
(PID.TID 0000.0001) ># tracer 1 - phosphate
(PID.TID 0000.0001) > PTRACERS_names(1)='PO4',
(PID.TID 0000.0001) > PTRACERS_units(1)='mmol P/m^3',
(PID.TID 0000.0001) > PTRACERS_advScheme(1)=33,
(PID.TID 0000.0001) > PTRACERS_diffKh(1)=0.E3,
(PID.TID 0000.0001) > PTRACERS_diffKr(1)=1.E-6,
(PID.TID 0000.0001) > PTRACERS_useKPP(1)=.TRUE. ,
(PID.TID 0000.0001) ># tracer 2 - nitrate
(PID.TID 0000.0001) > PTRACERS_names(2)='NO3',
(PID.TID 0000.0001) > PTRACERS_units(2)='mmol N/m^3',
(PID.TID 0000.0001) > PTRACERS_advScheme(2)=33,
(PID.TID 0000.0001) > PTRACERS_diffKh(2)=0.E3,
(PID.TID 0000.0001) > PTRACERS_diffKr(2)=1.E-6,
(PID.TID 0000.0001) > PTRACERS_useKPP(2)=.TRUE. ,
(PID.TID 0000.0001) ># tracer 3 - dissolved iron
(PID.TID 0000.0001) > PTRACERS_names(3)='FeT',
(PID.TID 0000.0001) > PTRACERS_units(3)='mmol Fe/m^3',
(PID.TID 0000.0001) > PTRACERS_advScheme(3)=33,
(PID.TID 0000.0001) > PTRACERS_diffKh(3)=0.E3,
(PID.TID 0000.0001) > PTRACERS_diffKr(3)=1.E-6,
(PID.TID 0000.0001) > PTRACERS_useKPP(3)=.TRUE. ,
(PID.TID 0000.0001) ># tracer 4 - silicic acid
(PID.TID 0000.0001) > PTRACERS_names(4)='SiO2',
(PID.TID 0000.0001) > PTRACERS_units(4)='mmol Si/m^3',
(PID.TID 0000.0001) > PTRACERS_advScheme(4)=33,
(PID.TID 0000.0001) > PTRACERS_diffKh(4)=0.E3,
(PID.TID 0000.0001) > PTRACERS_diffKr(4)=1.E-6,
(PID.TID 0000.0001) > PTRACERS_useKPP(4)=.TRUE. ,
(PID.TID 0000.0001) ># tracer 5 - DOP
(PID.TID 0000.0001) > PTRACERS_names(5)='DOP',
(PID.TID 0000.0001) > PTRACERS_units(5)='mmol P/m^3',
(PID.TID 0000.0001) > PTRACERS_advScheme(5)=33,
(PID.TID 0000.0001) > PTRACERS_diffKh(5)=0.E3,
(PID.TID 0000.0001) > PTRACERS_diffKr(5)=1.E-6,
(PID.TID 0000.0001) > PTRACERS_useKPP(5)=.TRUE.  ,
(PID.TID 0000.0001) ># tracer 6 - DON
(PID.TID 0000.0001) > PTRACERS_names(6)='DON',
(PID.TID 0000.0001) > PTRACERS_units(6)='mmol N/m^3',
(PID.TID 0000.0001) > PTRACERS_advScheme(6)=33,
(PID.TID 0000.0001) > PTRACERS_diffKh(6)=0.E3,
(PID.TID 0000.0001) > PTRACERS_diffKr(6)=1.E-6,
(PID.TID 0000.0001) > PTRACERS_useKPP(6)=.TRUE.  ,
(PID.TID 0000.0001) ># tracer 7 - DOFe
(PID.TID 0000.0001) > PTRACERS_names(7)='DOFe',
(PID.TID 0000.0001) > PTRACERS_units(7)='mmol Fe/m^3',
(PID.TID 0000.0001) > PTRACERS_advScheme(7)=33,
(PID.TID 0000.0001) > PTRACERS_diffKh(7)=0.E3,
(PID.TID 0000.0001) > PTRACERS_diffKr(7)=1.E-6,
(PID.TID 0000.0001) > PTRACERS_useKPP(7)=.TRUE.  ,
(PID.TID 0000.0001) ># tracer 8 - ZOO1P
(PID.TID 0000.0001) > PTRACERS_names(8)='ZOO1P',
(PID.TID 0000.0001) > PTRACERS_units(8)='mmol P/m^3',
(PID.TID 0000.0001) > PTRACERS_advScheme(8)=33,
(PID.TID 0000.0001) > PTRACERS_diffKh(8)=0.E3,
(PID.TID 0000.0001) > PTRACERS_diffKr(8)=1.E-6,
(PID.TID 0000.0001) > PTRACERS_useKPP(8)=.TRUE.  ,
(PID.TID 0000.0001) ># tracer 9 - ZOO1N
(PID.TID 0000.0001) > PTRACERS_names(9)='ZOO1N',
(PID.TID 0000.0001) > PTRACERS_units(9)='mmol N/m^3'
(PID.TID 0000.0001) > PTRACERS_advScheme(9)=33,
(PID.TID 0000.0001) > PTRACERS_diffKh(9)=0.E3,
(PID.TID 0000.0001) > PTRACERS_diffKr(9)=1.E-6,
(PID.TID 0000.0001) > PTRACERS_useKPP(9)=.TRUE.  ,
(PID.TID 0000.0001) ># tracer 10 - ZOO1Fe
(PID.TID 0000.0001) > PTRACERS_names(10)='ZOO1Fe',
(PID.TID 0000.0001) > PTRACERS_units(10)='mmol Fe/m^3'
(PID.TID 0000.0001) > PTRACERS_advScheme(10)=33,
(PID.TID 0000.0001) > PTRACERS_diffKh(10)=0.E3,
(PID.TID 0000.0001) > PTRACERS_diffKr(10)=1.E-6,
(PID.TID 0000.0001) > PTRACERS_useKPP(10)=.TRUE.  ,
(PID.TID 0000.0001) ># tracer 11 - ZOO1Si
(PID.TID 0000.0001) > PTRACERS_names(11)='ZOO1Si',
(PID.TID 0000.0001) > PTRACERS_units(11)='mmol Si/m^3'
(PID.TID 0000.0001) > PTRACERS_advScheme(11)=33,
(PID.TID 0000.0001) > PTRACERS_diffKh(11)=0.E3,
(PID.TID 0000.0001) > PTRACERS_diffKr(11)=1.E-6,
(PID.TID 0000.0001) > PTRACERS_useKPP(11)=.TRUE.  ,
(PID.TID 0000.0001) ># tracer 12 - ZOO2P
(PID.TID 0000.0001) > PTRACERS_names(12)='ZOO2P',
(PID.TID 0000.0001) > PTRACERS_units(12)='mmol P/m^3',
(PID.TID 0000.0001) > PTRACERS_advScheme(12)=33,
(PID.TID 0000.0001) > PTRACERS_diffKh(12)=0.E3,
(PID.TID 0000.0001) > PTRACERS_diffKr(12)=1.E-6,
(PID.TID 0000.0001) > PTRACERS_useKPP(12)=.TRUE.  ,
(PID.TID 0000.0001) ># tracer 13 - ZOO2N
(PID.TID 0000.0001) > PTRACERS_names(13)='ZOO2N',
(PID.TID 0000.0001) > PTRACERS_units(13)='mmol N/m^3'
(PID.TID 0000.0001) > PTRACERS_advScheme(13)=33,
(PID.TID 0000.0001) > PTRACERS_diffKh(13)=0.E3,
(PID.TID 0000.0001) > PTRACERS_diffKr(13)=1.E-6,
(PID.TID 0000.0001) > PTRACERS_useKPP(13)=.TRUE.  ,
(PID.TID 0000.0001) ># tracer 14 - ZOO2Fe
(PID.TID 0000.0001) > PTRACERS_names(14)='ZOO2Fe',
(PID.TID 0000.0001) > PTRACERS_units(14)='mmol Fe/m^3'
(PID.TID 0000.0001) > PTRACERS_advScheme(14)=33,
(PID.TID 0000.0001) > PTRACERS_diffKh(14)=0.E3,
(PID.TID 0000.0001) > PTRACERS_diffKr(14)=1.E-6,
(PID.TID 0000.0001) > PTRACERS_useKPP(14)=.TRUE.  ,
(PID.TID 0000.0001) ># tracer 15 - ZOO2Si
(PID.TID 0000.0001) > PTRACERS_names(15)='ZOO2Si',
(PID.TID 0000.0001) > PTRACERS_units(15)='mmol Si/m^3'
(PID.TID 0000.0001) > PTRACERS_advScheme(15)=33,
(PID.TID 0000.0001) > PTRACERS_diffKh(15)=0.E3,
(PID.TID 0000.0001) > PTRACERS_diffKr(15)=1.E-6,
(PID.TID 0000.0001) > PTRACERS_useKPP(15)=.TRUE.  ,
(PID.TID 0000.0001) ># tracer 16 - POP
(PID.TID 0000.0001) > PTRACERS_names(16)='POP',
(PID.TID 0000.0001) > PTRACERS_units(16)='mmol P/m^3',
(PID.TID 0000.0001) > PTRACERS_advScheme(16)=33,
(PID.TID 0000.0001) > PTRACERS_diffKh(16)=0.E3,
(PID.TID 0000.0001) > PTRACERS_diffKr(16)=1.E-6,
(PID.TID 0000.0001) > PTRACERS_useKPP(16)=.TRUE.  ,
(PID.TID 0000.0001) ># tracer 17 - PON
(PID.TID 0000.0001) > PTRACERS_names(17)='PON',
(PID.TID 0000.0001) > PTRACERS_units(17)='mmol N/m^3',
(PID.TID 0000.0001) > PTRACERS_advScheme(17)=33,
(PID.TID 0000.0001) > PTRACERS_diffKh(17)=0.E3,
(PID.TID 0000.0001) > PTRACERS_diffKr(17)=1.E-6,
(PID.TID 0000.0001) > PTRACERS_useKPP(17)=.TRUE.  ,
(PID.TID 0000.0001) ># tracer 18 - POFe
(PID.TID 0000.0001) > PTRACERS_names(18)='POFe',
(PID.TID 0000.0001) > PTRACERS_units(18)='mmol Fe/m^3'
(PID.TID 0000.0001) > PTRACERS_advScheme(18)=33,
(PID.TID 0000.0001) > PTRACERS_diffKh(18)=0.E3,
(PID.TID 0000.0001) > PTRACERS_diffKr(18)=1.E-6,
(PID.TID 0000.0001) > PTRACERS_useKPP(18)=.TRUE.  ,
(PID.TID 0000.0001) ># tracer 19 - POSi
(PID.TID 0000.0001) > PTRACERS_names(19)='POSi',
(PID.TID 0000.0001) > PTRACERS_units(19)='mmol Si/m^3'
(PID.TID 0000.0001) > PTRACERS_advScheme(19)=33,
(PID.TID 0000.0001) > PTRACERS_diffKh(19)=0.E3,
(PID.TID 0000.0001) > PTRACERS_diffKr(19)=1.E-6,
(PID.TID 0000.0001) > PTRACERS_useKPP(19)=.TRUE.  ,
(PID.TID 0000.0001) ># tracer 20 - NH4
(PID.TID 0000.0001) > PTRACERS_names(20)='NH4',
(PID.TID 0000.0001) > PTRACERS_units(20)='mmol N/m^3'
(PID.TID 0000.0001) > PTRACERS_advScheme(20)=33,
(PID.TID 0000.0001) > PTRACERS_diffKh(20)=0.E3,
(PID.TID 0000.0001) > PTRACERS_diffKr(20)=1.E-6,
(PID.TID 0000.0001) > PTRACERS_useKPP(20)=.TRUE.  ,
(PID.TID 0000.0001) ># tracer 21 - NO2
(PID.TID 0000.0001) > PTRACERS_names(21)='NO2',
(PID.TID 0000.0001) > PTRACERS_units(21)='mmol N/m^3'
(PID.TID 0000.0001) > PTRACERS_advScheme(21)=33,
(PID.TID 0000.0001) > PTRACERS_diffKh(21)=0.E3,
(PID.TID 0000.0001) > PTRACERS_diffKr(21)=1.E-6,
(PID.TID 0000.0001) > PTRACERS_useKPP(21)=.TRUE.  ,
(PID.TID 0000.0001) ># tracer 22 - PHYT01
(PID.TID 0000.0001) > PTRACERS_names(22)='Phy01',
(PID.TID 0000.0001) > PTRACERS_units(22)='mmol P/m^3'
(PID.TID 0000.0001) > PTRACERS_advScheme(22)=33,
(PID.TID 0000.0001) > PTRACERS_diffKh(22)=0.E3,
(PID.TID 0000.0001) > PTRACERS_diffKr(22)=1.E-6,
(PID.TID 0000.0001) > PTRACERS_useKPP(22)=.TRUE.  ,
(PID.TID 0000.0001) ># tracer 23 - PHYT02
(PID.TID 0000.0001) > PTRACERS_names(23)='Phy02',
(PID.TID 0000.0001) > PTRACERS_units(23)='mmol P/m^3'
(PID.TID 0000.0001) > PTRACERS_advScheme(23)=33,
(PID.TID 0000.0001) > PTRACERS_diffKh(23)=0.E3,
(PID.TID 0000.0001) > PTRACERS_diffKr(23)=1.E-6,
(PID.TID 0000.0001) > PTRACERS_useKPP(23)=.TRUE.  ,
(PID.TID 0000.0001) ># tracer 24 - PHYT03
(PID.TID 0000.0001) > PTRACERS_names(24)='Phy03',
(PID.TID 0000.0001) > PTRACERS_units(24)='mmol P/m^3'
(PID.TID 0000.0001) > PTRACERS_advScheme(24)=33,
(PID.TID 0000.0001) > PTRACERS_diffKh(24)=0.E3,
(PID.TID 0000.0001) > PTRACERS_diffKr(24)=1.E-6,
(PID.TID 0000.0001) > PTRACERS_useKPP(24)=.TRUE.  ,
(PID.TID 0000.0001) ># tracer 25 - PHYT04
(PID.TID 0000.0001) > PTRACERS_names(25)='Phy04',
(PID.TID 0000.0001) > PTRACERS_units(25)='mmol P/m^3'
(PID.TID 0000.0001) > PTRACERS_advScheme(25)=33,
(PID.TID 0000.0001) > PTRACERS_diffKh(25)=0.E3,
(PID.TID 0000.0001) > PTRACERS_diffKr(25)=1.E-6,
(PID.TID 0000.0001) > PTRACERS_useKPP(25)=.TRUE.  ,
(PID.TID 0000.0001) ># tracer 26 - PHYT05
(PID.TID 0000.0001) > PTRACERS_names(26)='Phy05',
(PID.TID 0000.0001) > PTRACERS_units(26)='mmol P/m^3'
(PID.TID 0000.0001) > PTRACERS_advScheme(26)=33,
(PID.TID 0000.0001) > PTRACERS_diffKh(26)=0.E3,
(PID.TID 0000.0001) > PTRACERS_diffKr(26)=1.E-6,
(PID.TID 0000.0001) > PTRACERS_useKPP(26)=.TRUE.  ,
(PID.TID 0000.0001) ># tracer 27 - PHYT06
(PID.TID 0000.0001) > PTRACERS_names(27)='Phy06',
(PID.TID 0000.0001) > PTRACERS_units(27)='mmol P/m^3'
(PID.TID 0000.0001) > PTRACERS_advScheme(27)=33,
(PID.TID 0000.0001) > PTRACERS_diffKh(27)=0.E3,
(PID.TID 0000.0001) > PTRACERS_diffKr(27)=1.E-6,
(PID.TID 0000.0001) > PTRACERS_useKPP(27)=.TRUE.  ,
(PID.TID 0000.0001) ># tracer 28 - PHYT07
(PID.TID 0000.0001) > PTRACERS_names(28)='Phy07',
(PID.TID 0000.0001) > PTRACERS_units(28)='mmol P/m^3'
(PID.TID 0000.0001) > PTRACERS_advScheme(28)=33,
(PID.TID 0000.0001) > PTRACERS_diffKh(28)=0.E3,
(PID.TID 0000.0001) > PTRACERS_diffKr(28)=1.E-6,
(PID.TID 0000.0001) > PTRACERS_useKPP(28)=.TRUE.  ,
(PID.TID 0000.0001) ># tracer 29 - PHYT08
(PID.TID 0000.0001) > PTRACERS_names(29)='Phy08',
(PID.TID 0000.0001) > PTRACERS_units(29)='mmol P/m^3'
(PID.TID 0000.0001) > PTRACERS_advScheme(29)=33,
(PID.TID 0000.0001) > PTRACERS_diffKh(29)=0.E3,
(PID.TID 0000.0001) > PTRACERS_diffKr(29)=1.E-6,
(PID.TID 0000.0001) > PTRACERS_useKPP(29)=.TRUE.  ,
(PID.TID 0000.0001) ># tracer 30 - PHYT09
(PID.TID 0000.0001) > PTRACERS_names(30)='Phy09',
(PID.TID 0000.0001) > PTRACERS_units(30)='mmol P/m^3'
(PID.TID 0000.0001) > PTRACERS_advScheme(30)=33,
(PID.TID 0000.0001) > PTRACERS_diffKh(30)=0.E3,
(PID.TID 0000.0001) > PTRACERS_diffKr(30)=1.E-6,
(PID.TID 0000.0001) > PTRACERS_useKPP(30)=.TRUE.  ,
(PID.TID 0000.0001) ># tracer 31 - PHYT10
(PID.TID 0000.0001) > PTRACERS_names(31)='Phy10',
(PID.TID 0000.0001) > PTRACERS_units(31)='mmol P/m^3'
(PID.TID 0000.0001) > PTRACERS_advScheme(31)=33,
(PID.TID 0000.0001) > PTRACERS_diffKh(31)=0.E3,
(PID.TID 0000.0001) > PTRACERS_diffKr(31)=1.E-6,
(PID.TID 0000.0001) > PTRACERS_useKPP(31)=.TRUE.  ,
(PID.TID 0000.0001) ># tracer 32 - PHYT11
(PID.TID 0000.0001) > PTRACERS_names(32)='Phy11',
(PID.TID 0000.0001) > PTRACERS_units(32)='mmol P/m^3'
(PID.TID 0000.0001) > PTRACERS_advScheme(32)=33,
(PID.TID 0000.0001) > PTRACERS_diffKh(32)=0.E3,
(PID.TID 0000.0001) > PTRACERS_diffKr(32)=1.E-6,
(PID.TID 0000.0001) > PTRACERS_useKPP(32)=.TRUE.  ,
(PID.TID 0000.0001) ># tracer 33 - PHYT12
(PID.TID 0000.0001) > PTRACERS_names(33)='Phy12',
(PID.TID 0000.0001) > PTRACERS_units(33)='mmol P/m^3'
(PID.TID 0000.0001) > PTRACERS_advScheme(33)=33,
(PID.TID 0000.0001) > PTRACERS_diffKh(33)=0.E3,
(PID.TID 0000.0001) > PTRACERS_diffKr(33)=1.E-6,
(PID.TID 0000.0001) > PTRACERS_useKPP(33)=.TRUE.  ,
(PID.TID 0000.0001) ># tracer 34 - PHYT13
(PID.TID 0000.0001) > PTRACERS_names(34)='Phy13',
(PID.TID 0000.0001) > PTRACERS_units(34)='mmol P/m^3'
(PID.TID 0000.0001) > PTRACERS_advScheme(34)=33,
(PID.TID 0000.0001) > PTRACERS_diffKh(34)=0.E3,
(PID.TID 0000.0001) > PTRACERS_diffKr(34)=1.E-6,
(PID.TID 0000.0001) > PTRACERS_useKPP(34)=.TRUE.  ,
(PID.TID 0000.0001) ># tracer 35 - PHYT14
(PID.TID 0000.0001) > PTRACERS_names(35)='Phy14',
(PID.TID 0000.0001) > PTRACERS_units(35)='mmol P/m^3'
(PID.TID 0000.0001) > PTRACERS_advScheme(35)=33,
(PID.TID 0000.0001) > PTRACERS_diffKh(35)=0.E3,
(PID.TID 0000.0001) > PTRACERS_diffKr(35)=1.E-6,
(PID.TID 0000.0001) > PTRACERS_useKPP(35)=.TRUE.  ,
(PID.TID 0000.0001) ># tracer 36 - PHYT15
(PID.TID 0000.0001) > PTRACERS_names(36)='Phy15',
(PID.TID 0000.0001) > PTRACERS_units(36)='mmol P/m^3'
(PID.TID 0000.0001) > PTRACERS_advScheme(36)=33,
(PID.TID 0000.0001) > PTRACERS_diffKh(36)=0.E3,
(PID.TID 0000.0001) > PTRACERS_diffKr(36)=1.E-6,
(PID.TID 0000.0001) > PTRACERS_useKPP(36)=.TRUE.  ,
(PID.TID 0000.0001) ># tracer 37 - PHYT16
(PID.TID 0000.0001) > PTRACERS_names(37)='Phy16',
(PID.TID 0000.0001) > PTRACERS_units(37)='mmol P/m^3'
(PID.TID 0000.0001) > PTRACERS_advScheme(37)=33,
(PID.TID 0000.0001) > PTRACERS_diffKh(37)=0.E3,
(PID.TID 0000.0001) > PTRACERS_diffKr(37)=1.E-6,
(PID.TID 0000.0001) > PTRACERS_useKPP(37)=.TRUE.  ,
(PID.TID 0000.0001) ># tracer 38 - PHYT17
(PID.TID 0000.0001) > PTRACERS_names(38)='Phy17',
(PID.TID 0000.0001) > PTRACERS_units(38)='mmol P/m^3'
(PID.TID 0000.0001) > PTRACERS_advScheme(38)=33,
(PID.TID 0000.0001) > PTRACERS_diffKh(38)=0.E3,
(PID.TID 0000.0001) > PTRACERS_diffKr(38)=1.E-6,
(PID.TID 0000.0001) > PTRACERS_useKPP(38)=.TRUE.  ,
(PID.TID 0000.0001) ># tracer 39 - PHYT18
(PID.TID 0000.0001) > PTRACERS_names(39)='Phy18',
(PID.TID 0000.0001) > PTRACERS_units(39)='mmol P/m^3'
(PID.TID 0000.0001) > PTRACERS_advScheme(39)=33,
(PID.TID 0000.0001) > PTRACERS_diffKh(39)=0.E3,
(PID.TID 0000.0001) > PTRACERS_diffKr(39)=1.E-6,
(PID.TID 0000.0001) > PTRACERS_useKPP(39)=.TRUE.  ,
(PID.TID 0000.0001) ># tracer 40 - PHYT19
(PID.TID 0000.0001) > PTRACERS_names(40)='Phy19',
(PID.TID 0000.0001) > PTRACERS_units(40)='mmol P/m^3'
(PID.TID 0000.0001) > PTRACERS_advScheme(40)=33,
(PID.TID 0000.0001) > PTRACERS_diffKh(40)=0.E3,
(PID.TID 0000.0001) > PTRACERS_diffKr(40)=1.E-6,
(PID.TID 0000.0001) > PTRACERS_useKPP(40)=.TRUE.  ,
(PID.TID 0000.0001) ># tracer 41 - PHYT20
(PID.TID 0000.0001) > PTRACERS_names(41)='Phy20',
(PID.TID 0000.0001) > PTRACERS_units(41)='mmol P/m^3'
(PID.TID 0000.0001) > PTRACERS_advScheme(41)=33,
(PID.TID 0000.0001) > PTRACERS_diffKh(41)=0.E3,
(PID.TID 0000.0001) > PTRACERS_diffKr(41)=1.E-6,
(PID.TID 0000.0001) > PTRACERS_useKPP(41)=.TRUE.  ,
(PID.TID 0000.0001) ># tracer 42 - PHYT21
(PID.TID 0000.0001) > PTRACERS_names(42)='Phy21',
(PID.TID 0000.0001) > PTRACERS_units(42)='mmol P/m^3'
(PID.TID 0000.0001) > PTRACERS_advScheme(42)=33,
(PID.TID 0000.0001) > PTRACERS_diffKh(42)=0.E3,
(PID.TID 0000.0001) > PTRACERS_diffKr(42)=1.E-6,
(PID.TID 0000.0001) > PTRACERS_useKPP(42)=.TRUE.  ,
(PID.TID 0000.0001) ># tracer 43 - PHYT22
[...]
(PID.TID 0000.0001) %MON trcstat_ptracer89_max        =   6.2559780355501E-02
(PID.TID 0000.0001) %MON trcstat_ptracer89_min        =   4.6262791797770E-30
(PID.TID 0000.0001) %MON trcstat_ptracer89_mean       =   3.6656164807939E-03
(PID.TID 0000.0001) %MON trcstat_ptracer89_sd         =   7.9447616408359E-03
(PID.TID 0000.0001) %MON trcstat_ptracer89_del2       =   2.9969111850509E-05
(PID.TID 0000.0001) %MON trcstat_ptracer90_max        =   5.5737016990611E-05
(PID.TID 0000.0001) %MON trcstat_ptracer90_min        =  -1.3589440172057E-18
(PID.TID 0000.0001) %MON trcstat_ptracer90_mean       =   1.1889332155469E-07
(PID.TID 0000.0001) %MON trcstat_ptracer90_sd         =   1.8005886898573E-06
(PID.TID 0000.0001) %MON trcstat_ptracer90_del2       =   4.5571867111969E-08
(PID.TID 0000.0001) %MON trcstat_ptracer91_max        =   2.4425313219193E-04
(PID.TID 0000.0001) %MON trcstat_ptracer91_min        =   2.3685415327493E-24
(PID.TID 0000.0001) %MON trcstat_ptracer91_mean       =   5.6076945235985E-07
(PID.TID 0000.0001) %MON trcstat_ptracer91_sd         =   7.2279263820023E-06
(PID.TID 0000.0001) %MON trcstat_ptracer91_del2       =   9.9697458185147E-08
(PID.TID 0000.0001) %MON trcstat_ptracer92_max        =   3.2265996030315E-04
(PID.TID 0000.0001) %MON trcstat_ptracer92_min        =   8.9658366245979E-43
(PID.TID 0000.0001) %MON trcstat_ptracer92_mean       =   1.6413935865878E-06
(PID.TID 0000.0001) %MON trcstat_ptracer92_sd         =   1.3553400250936E-05
(PID.TID 0000.0001) %MON trcstat_ptracer92_del2       =   1.0065039014846E-07
(PID.TID 0000.0001) %MON trcstat_ptracer93_max        =   7.3422962416303E-03
(PID.TID 0000.0001) %MON trcstat_ptracer93_min        =   3.4057527826916E-33
(PID.TID 0000.0001) %MON trcstat_ptracer93_mean       =   1.0724762126093E-04
(PID.TID 0000.0001) %MON trcstat_ptracer93_sd         =   4.2464748341751E-04
(PID.TID 0000.0001) %MON trcstat_ptracer93_del2       =   3.3801958312099E-06
(PID.TID 0000.0001) %MON trcstat_ptracer94_max        =   5.2629774781921E-05
(PID.TID 0000.0001) %MON trcstat_ptracer94_min        =   1.2412464193959E-28
(PID.TID 0000.0001) %MON trcstat_ptracer94_mean       =   1.0685512421360E-07
(PID.TID 0000.0001) %MON trcstat_ptracer94_sd         =   1.6677111608369E-06
(PID.TID 0000.0001) %MON trcstat_ptracer94_del2       =   4.6295093187327E-08
(PID.TID 0000.0001) %MON trcstat_ptracer95_max        =   5.6037410257126E-05
(PID.TID 0000.0001) %MON trcstat_ptracer95_min        =  -4.2349792754670E-18
(PID.TID 0000.0001) %MON trcstat_ptracer95_mean       =   1.2513272595967E-07
(PID.TID 0000.0001) %MON trcstat_ptracer95_sd         =   1.8060063839951E-06
(PID.TID 0000.0001) %MON trcstat_ptracer95_del2       =   4.5352597546156E-08
(PID.TID 0000.0001) %MON trcstat_ptracer96_max        =   5.2629768496877E-05
(PID.TID 0000.0001) %MON trcstat_ptracer96_min        =  -2.6858229973770E-17
(PID.TID 0000.0001) %MON trcstat_ptracer96_mean       =   1.0685394609406E-07
(PID.TID 0000.0001) %MON trcstat_ptracer96_sd         =   1.6677108217261E-06
(PID.TID 0000.0001) %MON trcstat_ptracer96_del2       =   4.6295095275911E-08
(PID.TID 0000.0001) %MON trcstat_ptracer97_max        =   8.0753649048310E-04
(PID.TID 0000.0001) %MON trcstat_ptracer97_min        =   1.0000000000689E-50
(PID.TID 0000.0001) %MON trcstat_ptracer97_mean       =   1.5711259266675E-06
(PID.TID 0000.0001) %MON trcstat_ptracer97_sd         =   1.5779896012757E-05
(PID.TID 0000.0001) %MON trcstat_ptracer97_del2       =   1.3214091147405E-07
(PID.TID 0000.0001) %MON trcstat_ptracer98_max        =   7.3478133210894E-05
(PID.TID 0000.0001) %MON trcstat_ptracer98_min        =  -1.0142682988076E-23
(PID.TID 0000.0001) %MON trcstat_ptracer98_mean       =   2.0598168999426E-07
(PID.TID 0000.0001) %MON trcstat_ptracer98_sd         =   2.8736206200366E-06
(PID.TID 0000.0001) %MON trcstat_ptracer98_del2       =   3.9386596127125E-08
(PID.TID 0000.0001) %MON trcstat_ptracer99_max        =   5.4170300261066E-05
(PID.TID 0000.0001) %MON trcstat_ptracer99_min        =  -9.8814199900503E-22
(PID.TID 0000.0001) %MON trcstat_ptracer99_mean       =   1.1618249605549E-07
(PID.TID 0000.0001) %MON trcstat_ptracer99_sd         =   1.7576926738640E-06
(PID.TID 0000.0001) %MON trcstat_ptracer99_del2       =   4.5499083766512E-08
(PID.TID 0000.0001) // =======================================================
(PID.TID 0000.0001) // End MONITOR ptracers field statistics
(PID.TID 0000.0001) // =======================================================
 Compute Stats, Diag. #   1480  SIqsw     vol(   0 ): 4.767E+11  Parms: SM      U1      
 Compute Stats, Diag. #     81  oceQsw    vol(   0 ): 4.767E+11  Parms: SM      U1      
 Compute Stats, Diag. #   1386  PAR       vol(   0 ): 2.820E+13  Parms: SM P    MR      
 Compute Stats, Diag. #    164  EXFswnet  vol(   0 ): 4.767E+11  Parms: SM      U1      
 Compute Stats, Diag. #    166  EXFswdn   vol(   0 ): 4.767E+11  Parms: SM      U1      
 Compute Stats, Diag. #     26  THETA     vol(   0 ): 2.820E+13  Parms: SMR     MR      
 Compute Stats, Diag. #     29  SALTanom  vol(   0 ): 2.820E+13  Parms: SMR     MR      
 Compute Stats, Diag. #   1387  PP        vol(   0 ): 2.820E+13  Parms: SM P    MR      
 Compute Stats, Diag. #   1133  TRAC79    vol(   0 ): 2.820E+13  Parms: SMR     MR      
 Compute Stats, Diag. #     23  ETAN      vol(   0 ): 4.767E+11  Parms: SM      M1      
 Compute Stats, Diag. #    221  TRAC03    vol(   0 ): 2.820E+13  Parms: SMR     MR      
(PID.TID 0000.0001) DIAGSTATS_CLOSE_IO: close file: SIqsw_stat.0000188388.txt , unit=     9
(PID.TID 0000.0001) DIAGSTATS_CLOSE_IO: close file: oceQsw_stat.0000188388.txt , unit=    10
(PID.TID 0000.0001) DIAGSTATS_CLOSE_IO: close file: PAR_stat.0000188388.txt , unit=    11
(PID.TID 0000.0001) DIAGSTATS_CLOSE_IO: close file: EXFswnet_stat.0000188388.txt , unit=    12
(PID.TID 0000.0001) DIAGSTATS_CLOSE_IO: close file: EXFswdn_stat.0000188388.txt , unit=    13
(PID.TID 0000.0001) DIAGSTATS_CLOSE_IO: close file: THETA_stat.0000188388.txt , unit=    14
(PID.TID 0000.0001) DIAGSTATS_CLOSE_IO: close file: SALTanom_stat.0000188388.txt , unit=    16
(PID.TID 0000.0001) DIAGSTATS_CLOSE_IO: close file: PP_stat.0000188388.txt , unit=    17
(PID.TID 0000.0001) DIAGSTATS_CLOSE_IO: close file: Phy58_stat.0000188388.txt , unit=    18
(PID.TID 0000.0001) DIAGSTATS_CLOSE_IO: close file: ETAN_stat.0000188388.txt , unit=    19
(PID.TID 0000.0001) DIAGSTATS_CLOSE_IO: close file: FeT_stat.0000188388.txt , unit=    20
(PID.TID 0000.0001) %CHECKPOINT    188392 ckptA
(PID.TID 0000.0001)   Seconds in section "ALL                    [THE_MODEL_MAIN]":
(PID.TID 0000.0001)           User time:   277.53000000000003
(PID.TID 0000.0001)         System time:   1.2100000000000000
(PID.TID 0000.0001)     Wall clock time:   280.89329695701599
(PID.TID 0000.0001)          No. starts:           1
(PID.TID 0000.0001)           No. stops:           1
(PID.TID 0000.0001)   Seconds in section "INITIALISE_FIXED       [THE_MODEL_MAIN]":
(PID.TID 0000.0001)           User time:  0.53000000000000003
(PID.TID 0000.0001)         System time:  0.11000000000000000
(PID.TID 0000.0001)     Wall clock time:  0.64289903640747070
(PID.TID 0000.0001)          No. starts:           1
(PID.TID 0000.0001)           No. stops:           1
(PID.TID 0000.0001)   Seconds in section "THE_MAIN_LOOP          [THE_MODEL_MAIN]":
(PID.TID 0000.0001)           User time:   277.00000000000006
(PID.TID 0000.0001)         System time:   1.0999999999999999
(PID.TID 0000.0001)     Wall clock time:   280.25032401084900
(PID.TID 0000.0001)          No. starts:           1
(PID.TID 0000.0001)           No. stops:           1
(PID.TID 0000.0001)   Seconds in section "INITIALISE_VARIA    [THE_MAIN_LOOP]":
(PID.TID 0000.0001)           User time:   5.3200000000000003
(PID.TID 0000.0001)         System time:  0.71000000000000008
(PID.TID 0000.0001)     Wall clock time:   6.0986311435699463
(PID.TID 0000.0001)          No. starts:           1
(PID.TID 0000.0001)           No. stops:           1
(PID.TID 0000.0001)   Seconds in section "MAIN LOOP           [THE_MAIN_LOOP]":
(PID.TID 0000.0001)           User time:   271.68000000000001
(PID.TID 0000.0001)         System time:  0.38999999999999990
(PID.TID 0000.0001)     Wall clock time:   274.15165281295776
(PID.TID 0000.0001)          No. starts:           1
(PID.TID 0000.0001)           No. stops:           1
(PID.TID 0000.0001)   Seconds in section "FORWARD_STEP        [THE_MAIN_LOOP]":
(PID.TID 0000.0001)           User time:   271.68000000000006
(PID.TID 0000.0001)         System time:  0.39000000000000001
(PID.TID 0000.0001)     Wall clock time:   274.15159010887146
(PID.TID 0000.0001)          No. starts:           4
(PID.TID 0000.0001)           No. stops:           4
(PID.TID 0000.0001)   Seconds in section "UPDATE_SURF_DR      [FORWARD_STEP]":
(PID.TID 0000.0001)           User time:  6.99999999999647571E-002
(PID.TID 0000.0001)         System time:   0.0000000000000000
(PID.TID 0000.0001)     Wall clock time:  7.97758102416992188E-002
(PID.TID 0000.0001)          No. starts:           8
(PID.TID 0000.0001)           No. stops:           8
(PID.TID 0000.0001)   Seconds in section "DO_STATEVARS_DIAGS  [FORWARD_STEP]":
(PID.TID 0000.0001)           User time:   1.3799999999999955
(PID.TID 0000.0001)         System time:   0.0000000000000000
(PID.TID 0000.0001)     Wall clock time:   1.3815400600433350
(PID.TID 0000.0001)          No. starts:          12
(PID.TID 0000.0001)           No. stops:          12
(PID.TID 0000.0001)   Seconds in section "LOAD_FIELDS_DRIVER  [FORWARD_STEP]":
(PID.TID 0000.0001)           User time:  0.34000000000000341
(PID.TID 0000.0001)         System time:   0.0000000000000000
(PID.TID 0000.0001)     Wall clock time:  0.34862399101257324
(PID.TID 0000.0001)          No. starts:           4
(PID.TID 0000.0001)           No. stops:           4
(PID.TID 0000.0001)   Seconds in section "EXF_GETFORCING     [LOAD_FLDS_DRIVER]":
(PID.TID 0000.0001)           User time:  0.31999999999999318
(PID.TID 0000.0001)         System time:   0.0000000000000000
(PID.TID 0000.0001)     Wall clock time:  0.31998085975646973
(PID.TID 0000.0001)          No. starts:           4
(PID.TID 0000.0001)           No. stops:           4
(PID.TID 0000.0001)   Seconds in section "DO_ATMOSPHERIC_PHYS [FORWARD_STEP]":
(PID.TID 0000.0001)           User time:   0.0000000000000000
(PID.TID 0000.0001)         System time:   0.0000000000000000
(PID.TID 0000.0001)     Wall clock time:  5.31673431396484375E-005
(PID.TID 0000.0001)          No. starts:           4
(PID.TID 0000.0001)           No. stops:           4
(PID.TID 0000.0001)   Seconds in section "DO_OCEANIC_PHYS     [FORWARD_STEP]":
(PID.TID 0000.0001)           User time:   21.599999999999994
(PID.TID 0000.0001)         System time:  1.00000000000000089E-002
(PID.TID 0000.0001)     Wall clock time:   21.784025907516479
(PID.TID 0000.0001)          No. starts:           4
(PID.TID 0000.0001)           No. stops:           4
(PID.TID 0000.0001)   Seconds in section "SEAICE_MODEL    [DO_OCEANIC_PHYS]":
(PID.TID 0000.0001)           User time:   17.420000000000016
(PID.TID 0000.0001)         System time:  1.00000000000000089E-002
(PID.TID 0000.0001)     Wall clock time:   17.569279909133911
(PID.TID 0000.0001)          No. starts:           4
(PID.TID 0000.0001)           No. stops:           4
(PID.TID 0000.0001)   Seconds in section "SEAICE_DYNSOLVER   [SEAICE_MODEL]":
(PID.TID 0000.0001)           User time:   16.889999999999986
(PID.TID 0000.0001)         System time:  1.00000000000000089E-002
(PID.TID 0000.0001)     Wall clock time:   17.026357889175415
(PID.TID 0000.0001)          No. starts:           4
(PID.TID 0000.0001)           No. stops:           4
(PID.TID 0000.0001)   Seconds in section "KPP_CALC [DO_OCEANIC_PHYS]":
(PID.TID 0000.0001)           User time:   3.6899999999999125
(PID.TID 0000.0001)         System time:   0.0000000000000000
(PID.TID 0000.0001)     Wall clock time:   3.7266631126403809
(PID.TID 0000.0001)          No. starts:          16
(PID.TID 0000.0001)           No. stops:          16
(PID.TID 0000.0001)   Seconds in section "GCHEM_CALC_TENDENCY [FORWARD_STEP]":
(PID.TID 0000.0001)           User time:   0.0000000000000000
(PID.TID 0000.0001)         System time:   0.0000000000000000
(PID.TID 0000.0001)     Wall clock time:  5.05447387695312500E-005
(PID.TID 0000.0001)          No. starts:           4
(PID.TID 0000.0001)           No. stops:           4
(PID.TID 0000.0001)   Seconds in section "DYNAMICS            [FORWARD_STEP]":
(PID.TID 0000.0001)           User time:   4.0000000000000000
(PID.TID 0000.0001)         System time:  9.99999999999989786E-003
(PID.TID 0000.0001)     Wall clock time:   4.0351727008819580
(PID.TID 0000.0001)          No. starts:           4
(PID.TID 0000.0001)           No. stops:           4
(PID.TID 0000.0001)   Seconds in section "SOLVE_FOR_PRESSURE  [FORWARD_STEP]":
(PID.TID 0000.0001)           User time:  0.32000000000005002
(PID.TID 0000.0001)         System time:   0.0000000000000000
(PID.TID 0000.0001)     Wall clock time:  0.30846786499023438
(PID.TID 0000.0001)          No. starts:           4
(PID.TID 0000.0001)           No. stops:           4
(PID.TID 0000.0001)   Seconds in section "MOM_CORRECTION_STEP [FORWARD_STEP]":
(PID.TID 0000.0001)           User time:  0.31999999999996476
(PID.TID 0000.0001)         System time:   0.0000000000000000
(PID.TID 0000.0001)     Wall clock time:  0.33844184875488281
(PID.TID 0000.0001)          No. starts:           4
(PID.TID 0000.0001)           No. stops:           4
(PID.TID 0000.0001)   Seconds in section "UPDATE_ETAH         [FORWARD_STEP]":
(PID.TID 0000.0001)           User time:   0.0000000000000000
(PID.TID 0000.0001)         System time:   0.0000000000000000
(PID.TID 0000.0001)     Wall clock time:  1.33490562438964844E-003
(PID.TID 0000.0001)          No. starts:           4
(PID.TID 0000.0001)           No. stops:           4
(PID.TID 0000.0001)   Seconds in section "BLOCKING_EXCHANGES  [FORWARD_STEP]":
(PID.TID 0000.0001)           User time:   1.3199999999999932
(PID.TID 0000.0001)         System time:   0.0000000000000000
(PID.TID 0000.0001)     Wall clock time:   1.3354249000549316
(PID.TID 0000.0001)          No. starts:           8
(PID.TID 0000.0001)           No. stops:           8
(PID.TID 0000.0001)   Seconds in section "THERMODYNAMICS      [FORWARD_STEP]":
(PID.TID 0000.0001)           User time:   156.94999999999996
(PID.TID 0000.0001)         System time:  5.00000000000000444E-002
(PID.TID 0000.0001)     Wall clock time:   158.12807345390320
(PID.TID 0000.0001)          No. starts:           4
(PID.TID 0000.0001)           No. stops:           4
(PID.TID 0000.0001)   Seconds in section "TRC_CORRECTION_STEP [FORWARD_STEP]":
(PID.TID 0000.0001)           User time:   1.9300000000000068
(PID.TID 0000.0001)         System time:   0.0000000000000000
(PID.TID 0000.0001)     Wall clock time:   1.9662539958953857
(PID.TID 0000.0001)          No. starts:           4
(PID.TID 0000.0001)           No. stops:           4
(PID.TID 0000.0001)   Seconds in section "GCHEM_FORCING_SEP  [FORWARD_STEP]":
(PID.TID 0000.0001)           User time:   76.949999999999989
(PID.TID 0000.0001)         System time:  3.00000000000000266E-002
(PID.TID 0000.0001)     Wall clock time:   77.605963945388794
(PID.TID 0000.0001)          No. starts:           4
(PID.TID 0000.0001)           No. stops:           4
(PID.TID 0000.0001)   Seconds in section "MONITOR             [FORWARD_STEP]":
(PID.TID 0000.0001)           User time:  0.63999999999998636
(PID.TID 0000.0001)         System time:   0.0000000000000000
(PID.TID 0000.0001)     Wall clock time:  0.65060710906982422
(PID.TID 0000.0001)          No. starts:           4
(PID.TID 0000.0001)           No. stops:           4
(PID.TID 0000.0001)   Seconds in section "DO_THE_MODEL_IO     [FORWARD_STEP]":
(PID.TID 0000.0001)           User time:   4.6100000000000136
(PID.TID 0000.0001)         System time:   0.0000000000000000
(PID.TID 0000.0001)     Wall clock time:   4.6421282291412354
(PID.TID 0000.0001)          No. starts:           4
(PID.TID 0000.0001)           No. stops:           4
(PID.TID 0000.0001)   Seconds in section "DO_WRITE_PICKUP     [FORWARD_STEP]":
(PID.TID 0000.0001)           User time:   1.2500000000000000
(PID.TID 0000.0001)         System time:  0.28999999999999992
(PID.TID 0000.0001)     Wall clock time:   1.5442907810211182
(PID.TID 0000.0001)          No. starts:           4
(PID.TID 0000.0001)           No. stops:           4
(PID.TID 0000.0001) // ======================================================
(PID.TID 0000.0001) // Tile <-> Tile communication statistics
(PID.TID 0000.0001) // ======================================================
(PID.TID 0000.0001) // o Tile number: 000001
(PID.TID 0000.0001) //         No. X exchanges =              0
(PID.TID 0000.0001) //            Max. X spins =              0
(PID.TID 0000.0001) //            Min. X spins =     1000000000
(PID.TID 0000.0001) //          Total. X spins =              0
(PID.TID 0000.0001) //            Avg. X spins =       0.00E+00
(PID.TID 0000.0001) //         No. Y exchanges =              0
(PID.TID 0000.0001) //            Max. Y spins =              0
(PID.TID 0000.0001) //            Min. Y spins =     1000000000
(PID.TID 0000.0001) //          Total. Y spins =              0
(PID.TID 0000.0001) //            Avg. Y spins =       0.00E+00
(PID.TID 0000.0001) // o Tile number: 000002
(PID.TID 0000.0001) //         No. X exchanges =              0
(PID.TID 0000.0001) //            Max. X spins =              0
(PID.TID 0000.0001) //            Min. X spins =     1000000000
(PID.TID 0000.0001) //          Total. X spins =              0
(PID.TID 0000.0001) //            Avg. X spins =       0.00E+00
(PID.TID 0000.0001) //         No. Y exchanges =              0
(PID.TID 0000.0001) //            Max. Y spins =              0
(PID.TID 0000.0001) //            Min. Y spins =     1000000000
(PID.TID 0000.0001) //          Total. Y spins =              0
(PID.TID 0000.0001) //            Avg. Y spins =       0.00E+00
(PID.TID 0000.0001) // o Tile number: 000003
(PID.TID 0000.0001) //         No. X exchanges =              0
(PID.TID 0000.0001) //            Max. X spins =              0
(PID.TID 0000.0001) //            Min. X spins =     1000000000
(PID.TID 0000.0001) //          Total. X spins =              0
(PID.TID 0000.0001) //            Avg. X spins =       0.00E+00
(PID.TID 0000.0001) //         No. Y exchanges =              0
(PID.TID 0000.0001) //            Max. Y spins =              0
(PID.TID 0000.0001) //            Min. Y spins =     1000000000
(PID.TID 0000.0001) //          Total. Y spins =              0
(PID.TID 0000.0001) //            Avg. Y spins =       0.00E+00
(PID.TID 0000.0001) // o Tile number: 000004
(PID.TID 0000.0001) //         No. X exchanges =              0
(PID.TID 0000.0001) //            Max. X spins =              0
(PID.TID 0000.0001) //            Min. X spins =     1000000000
(PID.TID 0000.0001) //          Total. X spins =              0
(PID.TID 0000.0001) //            Avg. X spins =       0.00E+00
(PID.TID 0000.0001) //         No. Y exchanges =              0
(PID.TID 0000.0001) //            Max. Y spins =              0
(PID.TID 0000.0001) //            Min. Y spins =     1000000000
(PID.TID 0000.0001) //          Total. Y spins =              0
(PID.TID 0000.0001) //            Avg. Y spins =       0.00E+00
(PID.TID 0000.0001) // o Thread number: 000001
(PID.TID 0000.0001) //            No. barriers =          34388
(PID.TID 0000.0001) //      Max. barrier spins =              1
(PID.TID 0000.0001) //      Min. barrier spins =              1
(PID.TID 0000.0001) //     Total barrier spins =          34388
(PID.TID 0000.0001) //      Avg. barrier spins =       1.00E+00
PROGRAM MAIN: Execution ended Normally
