(PID.TID 0000.0001) 
(PID.TID 0000.0001) // ======================================================
(PID.TID 0000.0001) //                      MITgcm UV
(PID.TID 0000.0001) //                      =========
(PID.TID 0000.0001) // ======================================================
(PID.TID 0000.0001) // execution environment starting up...
(PID.TID 0000.0001) 
(PID.TID 0000.0001) // MITgcmUV version:  checkpoint64d
(PID.TID 0000.0001) // Build user:        jahn
(PID.TID 0000.0001) // Build host:        saramago.mit.edu
(PID.TID 0000.0001) // Build date:        Sun Mar  3 04:12:17 EST 2013
(PID.TID 0000.0001) 
(PID.TID 0000.0001) // =======================================================
(PID.TID 0000.0001) // Execution Environment parameter file "eedata"
(PID.TID 0000.0001) // =======================================================
(PID.TID 0000.0001) ># Example "eedata" file
(PID.TID 0000.0001) ># Lines beginning "#" are comments
(PID.TID 0000.0001) ># nTx - No. threads per process in X
(PID.TID 0000.0001) ># nTy - No. threads per process in Y
(PID.TID 0000.0001) > &EEPARMS
(PID.TID 0000.0001) > nTx=1,
(PID.TID 0000.0001) > nTy=1,
(PID.TID 0000.0001) > printMapIncludesZeros = .TRUE.
(PID.TID 0000.0001) > /
(PID.TID 0000.0001) ># Note: Some systems use & as the
(PID.TID 0000.0001) ># namelist terminator. Other systems
(PID.TID 0000.0001) ># use a / character (as shown here).
(PID.TID 0000.0001) 
(PID.TID 0000.0001) // =======================================================
(PID.TID 0000.0001) // Computational Grid Specification ( see files "SIZE.h" )
(PID.TID 0000.0001) //                                  ( and "eedata"       )
(PID.TID 0000.0001) // =======================================================
(PID.TID 0000.0001)      nPx =    1 ; /* No. processes in X */
(PID.TID 0000.0001)      nPy =    1 ; /* No. processes in Y */
(PID.TID 0000.0001)      nSx =    2 ; /* No. tiles in X per process */
(PID.TID 0000.0001)      nSy =    2 ; /* No. tiles in Y per process */
(PID.TID 0000.0001)      sNx =   38 ; /* Tile size in X */
(PID.TID 0000.0001)      sNy =   36 ; /* Tile size in Y */
(PID.TID 0000.0001)      OLx =    4 ; /* Tile overlap distance in X */
(PID.TID 0000.0001)      OLy =    4 ; /* Tile overlap distance in Y */
(PID.TID 0000.0001)      nTx =    1 ; /* No. threads in X per process */
(PID.TID 0000.0001)      nTy =    1 ; /* No. threads in Y per process */
(PID.TID 0000.0001)       Nr =   24 ; /* No. levels in the vertical   */
(PID.TID 0000.0001)       Nx =   76 ; /* Total domain size in X ( = nPx*nSx*sNx ) */
(PID.TID 0000.0001)       Ny =   72 ; /* Total domain size in Y ( = nPy*nSy*sNy ) */
(PID.TID 0000.0001)   nTiles =    4 ; /* Total no. tiles per process ( = nSx*nSy ) */
(PID.TID 0000.0001)   nProcs =    1 ; /* Total no. processes ( = nPx*nPy ) */
(PID.TID 0000.0001) nThreads =    1 ; /* Total no. threads per process ( = nTx*nTy ) */
(PID.TID 0000.0001) usingMPI =    F ; /* Flag used to control whether MPI is in use */
(PID.TID 0000.0001)                   /*  note: To execute a program with MPI calls */
(PID.TID 0000.0001)                   /*  it must be launched appropriately e.g     */
(PID.TID 0000.0001)                   /*  "mpirun -np 64 ......"                    */
(PID.TID 0000.0001) useCoupler=    F ;/* Flag used to control communications with   */
(PID.TID 0000.0001)                   /*  other model components, through a coupler */
(PID.TID 0000.0001) debugMode =    F ; /* print debug msg. (sequence of S/R calls)  */
(PID.TID 0000.0001) printMapIncludesZeros=    T ; /* print zeros in Std.Output maps */
(PID.TID 0000.0001) maxLengthPrt1D=   65 /* maxLength of 1D array printed to StdOut */
(PID.TID 0000.0001) 
(PID.TID 0000.0001) // ======================================================
(PID.TID 0000.0001) // Mapping of tiles to threads
(PID.TID 0000.0001) // ======================================================
(PID.TID 0000.0001) // -o- Thread   1, tiles (   1:   2,   1:   2)
(PID.TID 0000.0001) 
(PID.TID 0000.0001) // ======================================================
(PID.TID 0000.0001) // Tile <-> Tile connectvity table
(PID.TID 0000.0001) // ======================================================
(PID.TID 0000.0001) // Tile number: 000001 (process no. = 000000)
(PID.TID 0000.0001) //        WEST: Tile = 000002, Process = 000000, Comm = put
(PID.TID 0000.0001) //                bi = 000002, bj = 000001
(PID.TID 0000.0001) //        EAST: Tile = 000002, Process = 000000, Comm = put
(PID.TID 0000.0001) //                bi = 000002, bj = 000001
(PID.TID 0000.0001) //       SOUTH: Tile = 000003, Process = 000000, Comm = put
(PID.TID 0000.0001) //                bi = 000001, bj = 000002
(PID.TID 0000.0001) //       NORTH: Tile = 000003, Process = 000000, Comm = put
(PID.TID 0000.0001) //                bi = 000001, bj = 000002
(PID.TID 0000.0001) // Tile number: 000002 (process no. = 000000)
(PID.TID 0000.0001) //        WEST: Tile = 000001, Process = 000000, Comm = put
(PID.TID 0000.0001) //                bi = 000001, bj = 000001
(PID.TID 0000.0001) //        EAST: Tile = 000001, Process = 000000, Comm = put
(PID.TID 0000.0001) //                bi = 000001, bj = 000001
(PID.TID 0000.0001) //       SOUTH: Tile = 000004, Process = 000000, Comm = put
(PID.TID 0000.0001) //                bi = 000002, bj = 000002
(PID.TID 0000.0001) //       NORTH: Tile = 000004, Process = 000000, Comm = put
(PID.TID 0000.0001) //                bi = 000002, bj = 000002
(PID.TID 0000.0001) // Tile number: 000003 (process no. = 000000)
(PID.TID 0000.0001) //        WEST: Tile = 000004, Process = 000000, Comm = put
(PID.TID 0000.0001) //                bi = 000002, bj = 000002
(PID.TID 0000.0001) //        EAST: Tile = 000004, Process = 000000, Comm = put
(PID.TID 0000.0001) //                bi = 000002, bj = 000002
(PID.TID 0000.0001) //       SOUTH: Tile = 000001, Process = 000000, Comm = put
(PID.TID 0000.0001) //                bi = 000001, bj = 000001
(PID.TID 0000.0001) //       NORTH: Tile = 000001, Process = 000000, Comm = put
(PID.TID 0000.0001) //                bi = 000001, bj = 000001
(PID.TID 0000.0001) // Tile number: 000004 (process no. = 000000)
(PID.TID 0000.0001) //        WEST: Tile = 000003, Process = 000000, Comm = put
(PID.TID 0000.0001) //                bi = 000001, bj = 000002
(PID.TID 0000.0001) //        EAST: Tile = 000003, Process = 000000, Comm = put
(PID.TID 0000.0001) //                bi = 000001, bj = 000002
(PID.TID 0000.0001) //       SOUTH: Tile = 000002, Process = 000000, Comm = put
(PID.TID 0000.0001) //                bi = 000002, bj = 000001
(PID.TID 0000.0001) //       NORTH: Tile = 000002, Process = 000000, Comm = put
(PID.TID 0000.0001) //                bi = 000002, bj = 000001
(PID.TID 0000.0001) 
(PID.TID 0000.0001)  INI_PARMS: opening model parameter file "data"
(PID.TID 0000.0001)  OPEN_COPY_DATA_FILE: opening file data
(PID.TID 0000.0001) // =======================================================
(PID.TID 0000.0001) // Parameter file "data"
(PID.TID 0000.0001) // =======================================================
(PID.TID 0000.0001) ># ====================
(PID.TID 0000.0001) ># | Model parameters |
(PID.TID 0000.0001) ># ====================
(PID.TID 0000.0001) >#
(PID.TID 0000.0001) ># Continuous equation parameters
(PID.TID 0000.0001) > &PARM01
(PID.TID 0000.0001) > tRef               = 3*23.,3*22.,21.,2*20.,19.,2*18.,17.,2*16.,15.,14.,13.,
(PID.TID 0000.0001) >                      12.,11.,2*9.,8.,7.
(PID.TID 0000.0001) > sRef               = 24*34.5,
(PID.TID 0000.0001) > viscAr= 6.0826e-04,
(PID.TID 0000.0001) > no_slip_sides=.FALSE.,
(PID.TID 0000.0001) > no_slip_bottom=.TRUE.,
(PID.TID 0000.0001) > diffKrT=1.e-6,
(PID.TID 0000.0001) > diffKrS=1.e-6,
(PID.TID 0000.0001) > rhonil=1027.5,
(PID.TID 0000.0001) > rhoConstFresh=999.8,
(PID.TID 0000.0001) > eosType='JMD95Z',
(PID.TID 0000.0001) > hFacMinDr=50.,
(PID.TID 0000.0001) > hFacMin=0.3,
(PID.TID 0000.0001) > hFacInf=0.1,
(PID.TID 0000.0001) > hFacSup=5.,
(PID.TID 0000.0001) ># select_rStar=2,
(PID.TID 0000.0001) ># nonlinFreeSurf=4,
(PID.TID 0000.0001) > implicitDiffusion=.TRUE.,
(PID.TID 0000.0001) > implicitViscosity=.TRUE.,
(PID.TID 0000.0001) > viscC4Leith=1.5,
(PID.TID 0000.0001) > viscC4Leithd=1.5,
(PID.TID 0000.0001) > viscA4GridMax=0.5,
(PID.TID 0000.0001) > useAreaViscLength=.TRUE.,
(PID.TID 0000.0001) > sideDragFactor=0.,
(PID.TID 0000.0001) > highOrderVorticity  = .TRUE.,
(PID.TID 0000.0001) > bottomDragQuadratic = 0.002,
(PID.TID 0000.0001) > tempAdvScheme=7,
(PID.TID 0000.0001) > saltAdvScheme=7,
(PID.TID 0000.0001) > StaggerTimeStep=.TRUE.,
(PID.TID 0000.0001) > multiDimAdvection=.TRUE.,
(PID.TID 0000.0001) > vectorInvariantMomentum=.TRUE.,
(PID.TID 0000.0001) > implicitFreeSurface=.TRUE.,
(PID.TID 0000.0001) > exactConserv=.TRUE.,
(PID.TID 0000.0001) >#debuglevel=-1,
(PID.TID 0000.0001) > convertFW2Salt=-1
(PID.TID 0000.0001) ># useRealFreshWaterFlux=.TRUE.,
(PID.TID 0000.0001) > useSingleCPUio=.TRUE.,
(PID.TID 0000.0001) > globalFiles=.TRUE.,
(PID.TID 0000.0001) > writeBinaryPrec=64,
(PID.TID 0000.0001) > /
(PID.TID 0000.0001) >
(PID.TID 0000.0001) ># Elliptic solver parameters
(PID.TID 0000.0001) > &PARM02
(PID.TID 0000.0001) > cg2dMaxIters=100,
(PID.TID 0000.0001) > cg2dTargetResidual=1.E-5,
(PID.TID 0000.0001) > /
(PID.TID 0000.0001) >
(PID.TID 0000.0001) ># Time stepping parameters
(PID.TID 0000.0001) > &PARM03
(PID.TID 0000.0001) ># 19930701
(PID.TID 0000.0001) >#niter0=0000039384,
(PID.TID 0000.0001) >#nTimeSteps=73,
(PID.TID 0000.0001) >#nTimeSteps=288,
(PID.TID 0000.0001) ># 19990301
(PID.TID 0000.0001) >#starttime=226022400.,
(PID.TID 0000.0001) >#endtime=226065600.,
(PID.TID 0000.0001) ># 19990301 1200
(PID.TID 0000.0001) > starttime=226065600.,
(PID.TID 0000.0001) > nTimeSteps=4,
(PID.TID 0000.0001) ># 19990301 1200
(PID.TID 0000.0001) >#starttime=36720000.,
(PID.TID 0000.0001) >#starttime=63158400.,
(PID.TID 0000.0001) >#starttime=94694400.,
(PID.TID 0000.0001) >#starttime=126230400.,
(PID.TID 0000.0001) >#starttime=157852800.,
(PID.TID 0000.0001) >#starttime=189388800.,
(PID.TID 0000.0001) >#starttime=220924800.,
(PID.TID 0000.0001) >#starttime=252460800.,
(PID.TID 0000.0001) >#starttime=284083200.,
(PID.TID 0000.0001) >#starttime=315619200.,
(PID.TID 0000.0001) ># 19930201
(PID.TID 0000.0001) >#endtime=34300800.,
(PID.TID 0000.0001) ># 19930301
(PID.TID 0000.0001) >#endtime=36720000.,
(PID.TID 0000.0001) ># 19930401
(PID.TID 0000.0001) >#endtime=39398400.,
(PID.TID 0000.0001) ># 19930501
(PID.TID 0000.0001) >#endtime=41990400.,
(PID.TID 0000.0001) ># 19930601
(PID.TID 0000.0001) >#endtime=44668800.,
(PID.TID 0000.0001) ># 19930701
(PID.TID 0000.0001) >#endtime=47260800.,
(PID.TID 0000.0001) ># 19930801
(PID.TID 0000.0001) >#endtime=49939200.,
(PID.TID 0000.0001) ># 19940101
(PID.TID 0000.0001) >#endtime=63158400.,
(PID.TID 0000.0001) ># 19950101
(PID.TID 0000.0001) >#endtime=94694400.,
(PID.TID 0000.0001) ># 19960101
(PID.TID 0000.0001) >#endtime=126230400.,
(PID.TID 0000.0001) ># 19970101
(PID.TID 0000.0001) >#endtime=157852800.,
(PID.TID 0000.0001) ># 19980101
(PID.TID 0000.0001) >#endtime=189388800.,
(PID.TID 0000.0001) ># 19990101
(PID.TID 0000.0001) >#endtime=220924800.,
(PID.TID 0000.0001) ># 19990301
(PID.TID 0000.0001) >#endtime=226022400.,
(PID.TID 0000.0001) ># 19990301 1200
(PID.TID 0000.0001) >#endtime=226065600.,
(PID.TID 0000.0001) ># 20000101
(PID.TID 0000.0001) >#endtime=252460800.,
(PID.TID 0000.0001) ># 20010101
(PID.TID 0000.0001) >#endtime=284083200.,
(PID.TID 0000.0001) ># 20020101
(PID.TID 0000.0001) >#endtime=315619200.,
(PID.TID 0000.0001) ># 20020701
(PID.TID 0000.0001) >#endtime=331257600.,
(PID.TID 0000.0001) >#endtime=347155200.,
(PID.TID 0000.0001) > abEps=0.1,
(PID.TID 0000.0001) > deltaT=1200,
(PID.TID 0000.0001) > cAdjFreq=0.,
(PID.TID 0000.0001) > pickupStrictlyMatch=.FALSE.,
(PID.TID 0000.0001) >#pChkptFreq=31536000.,
(PID.TID 0000.0001) > pChkptFreq=2678400.,
(PID.TID 0000.0001) > chkptFreq=2592000.,
(PID.TID 0000.0001) >#now in data.exf:
(PID.TID 0000.0001) >#tauSaltClimRelax = 8722203.,
(PID.TID 0000.0001) > monitorFreq=1200.,
(PID.TID 0000.0001) >#diagFreq=1200.,
(PID.TID 0000.0001) > forcing_In_AB = .FALSE.,
(PID.TID 0000.0001) > dumpInitAndLast=.FALSE.,
(PID.TID 0000.0001) > /
(PID.TID 0000.0001) >
(PID.TID 0000.0001) ># Gridding parameters
(PID.TID 0000.0001) > &PARM04
(PID.TID 0000.0001) > usingCartesianGrid=.FALSE.,
(PID.TID 0000.0001) > usingSphericalPolarGrid=.FALSE.,
(PID.TID 0000.0001) > usingCurvilinearGrid=.TRUE.,
(PID.TID 0000.0001) > delR   = 10.00, 10.00, 10.00, 10.00, 10.00, 10.00, 10.00, 10.01,
(PID.TID 0000.0001) > 10.03, 10.11, 10.32, 10.80, 11.76, 13.42, 16.04 , 19.82, 24.85,
(PID.TID 0000.0001) > 31.10, 38.42, 46.50, 55.00, 63.50, 71.58, 78.90
(PID.TID 0000.0001) > /
(PID.TID 0000.0001) >
(PID.TID 0000.0001) ># Input datasets
(PID.TID 0000.0001) > &PARM05
(PID.TID 0000.0001) > bathyFile      ='ETOPO2_76x72_baltic_corr',
(PID.TID 0000.0001) > hydrogThetaFile='',
(PID.TID 0000.0001) > hydrogSaltFile ='',
(PID.TID 0000.0001) > /
(PID.TID 0000.0001) 
(PID.TID 0000.0001)  INI_PARMS ; starts to read PARM01
(PID.TID 0000.0001)  INI_PARMS ; read PARM01 : OK
(PID.TID 0000.0001)  INI_PARMS ; starts to read PARM02
(PID.TID 0000.0001)  INI_PARMS ; read PARM02 : OK
(PID.TID 0000.0001)  INI_PARMS ; starts to read PARM03
(PID.TID 0000.0001)  INI_PARMS ; read PARM03 : OK
(PID.TID 0000.0001)  INI_PARMS ; starts to read PARM04
(PID.TID 0000.0001)  INI_PARMS ; read PARM04 : OK
(PID.TID 0000.0001)  INI_PARMS ; starts to read PARM05
(PID.TID 0000.0001)  INI_PARMS ; read PARM05 : OK
(PID.TID 0000.0001)  INI_PARMS: finished reading file "data"
(PID.TID 0000.0001)  PACKAGES_BOOT: opening data.pkg
(PID.TID 0000.0001)  OPEN_COPY_DATA_FILE: opening file data.pkg
(PID.TID 0000.0001) // =======================================================
(PID.TID 0000.0001) // Parameter file "data.pkg"
(PID.TID 0000.0001) // =======================================================
(PID.TID 0000.0001) ># Packages
(PID.TID 0000.0001) > &PACKAGES
(PID.TID 0000.0001) > useEXF         = .TRUE.,
(PID.TID 0000.0001) > useSEAICE      = .TRUE.,
(PID.TID 0000.0001) > useKPP         = .TRUE.,
(PID.TID 0000.0001) > useDiagnostics = .TRUE.,
(PID.TID 0000.0001) > useOBCS        = .TRUE.,
(PID.TID 0000.0001) > usePTRACERS    = .TRUE.,
(PID.TID 0000.0001) > useGCHEM       = .TRUE.,
(PID.TID 0000.0001) > useMNC         = .FALSE.,
(PID.TID 0000.0001) > /
(PID.TID 0000.0001) 
(PID.TID 0000.0001)  PACKAGES_BOOT: finished reading data.pkg
(PID.TID 0000.0001) CAL_READPARMS: opening data.cal
(PID.TID 0000.0001)  OPEN_COPY_DATA_FILE: opening file data.cal
(PID.TID 0000.0001) // =======================================================
(PID.TID 0000.0001) // Parameter file "data.cal"
(PID.TID 0000.0001) // =======================================================
(PID.TID 0000.0001) >#
(PID.TID 0000.0001) ># *******************
(PID.TID 0000.0001) ># Calendar Parameters
(PID.TID 0000.0001) ># *******************
(PID.TID 0000.0001) > &CAL_NML
(PID.TID 0000.0001) > TheCalendar='gregorian',
(PID.TID 0000.0001) > startDate_1=19920101,
(PID.TID 0000.0001) > startDate_2=000000,
(PID.TID 0000.0001) > calendarDumps = .TRUE.
(PID.TID 0000.0001) > /
(PID.TID 0000.0001) 
(PID.TID 0000.0001) CAL_READPARMS: finished reading data.cal
(PID.TID 0000.0001) EXF_READPARMS: opening data.exf
(PID.TID 0000.0001)  OPEN_COPY_DATA_FILE: opening file data.exf
(PID.TID 0000.0001) // =======================================================
(PID.TID 0000.0001) // Parameter file "data.exf"
(PID.TID 0000.0001) // =======================================================
(PID.TID 0000.0001) ># *********************
(PID.TID 0000.0001) ># External Forcing Data
(PID.TID 0000.0001) ># *********************
(PID.TID 0000.0001) >#
(PID.TID 0000.0001) > &EXF_NML_01
(PID.TID 0000.0001) > exf_albedo        = 0.15,
(PID.TID 0000.0001) > exf_iprec         = 32,
(PID.TID 0000.0001) > exf_yftype        = 'RL',
(PID.TID 0000.0001) > useExfYearlyFields= .TRUE.,
(PID.TID 0000.0001) > twoDigitYear      = .TRUE.,
(PID.TID 0000.0001) > useExfCheckRange  = .FALSE.,
(PID.TID 0000.0001) > /
(PID.TID 0000.0001) >#
(PID.TID 0000.0001) > &EXF_NML_02
(PID.TID 0000.0001) > atempfile         = 'RG_tmp2m',
(PID.TID 0000.0001) > aqhfile           = 'RG_spfh2m',
(PID.TID 0000.0001) > precipfile        = 'RG_rain',
(PID.TID 0000.0001) > runofffile        = 'runoff-360x180x12.bin',
(PID.TID 0000.0001) > uwindfile         = 'RG_u10m',
(PID.TID 0000.0001) > vwindfile         = 'RG_v10m',
(PID.TID 0000.0001) > swdownfile        = 'RG_dsw',
(PID.TID 0000.0001) > lwdownfile        = 'RG_dlw',
(PID.TID 0000.0001) > climsssfile       = 'LEV01_SSS_360x180x12.bin',
(PID.TID 0000.0001) >#
(PID.TID 0000.0001) > atempstartdate1   = 19990301,
(PID.TID 0000.0001) > atempstartdate2   = 120000,
(PID.TID 0000.0001) > atempperiod       = 21600.0,
(PID.TID 0000.0001) >#
(PID.TID 0000.0001) > aqhstartdate1     = 19990301,
(PID.TID 0000.0001) > aqhstartdate2     = 120000,
(PID.TID 0000.0001) > aqhperiod         = 21600.0,
(PID.TID 0000.0001) >#
(PID.TID 0000.0001) > precipstartdate1  = 19990301,
(PID.TID 0000.0001) > precipstartdate2  = 120000,
(PID.TID 0000.0001) > precipperiod      = 21600.0,
(PID.TID 0000.0001) >#
(PID.TID 0000.0001) > runoffperiod      = -12.,
(PID.TID 0000.0001) >#
(PID.TID 0000.0001) > uwindstartdate1   = 19990301,
(PID.TID 0000.0001) > uwindstartdate2   = 120000,
(PID.TID 0000.0001) > uwindperiod       = 21600.0,
(PID.TID 0000.0001) >#
(PID.TID 0000.0001) > vwindstartdate1   = 19990301,
(PID.TID 0000.0001) > vwindstartdate2   = 120000,
(PID.TID 0000.0001) > vwindperiod       = 21600.0,
(PID.TID 0000.0001) >#
(PID.TID 0000.0001) > swdownstartdate1  = 19990301,
(PID.TID 0000.0001) > swdownstartdate2  = 090000,
(PID.TID 0000.0001) > swdownperiod      = 21600.0,
(PID.TID 0000.0001) >#
(PID.TID 0000.0001) > lwdownstartdate1  = 19990301,
(PID.TID 0000.0001) > lwdownstartdate2  = 090000,
(PID.TID 0000.0001) > lwdownperiod      = 21600.0,
(PID.TID 0000.0001) >#
(PID.TID 0000.0001) > climsssperiod     = -12.,
(PID.TID 0000.0001) > climsssTauRelax   = 8722203.,
(PID.TID 0000.0001) > /
(PID.TID 0000.0001) >#
(PID.TID 0000.0001) > &EXF_NML_03
(PID.TID 0000.0001) > exf_offset_atemp  = 273.3971,
(PID.TID 0000.0001) > exf_inscal_runoff = 3.1710e-08,
(PID.TID 0000.0001) > /
(PID.TID 0000.0001) >#
(PID.TID 0000.0001) > &EXF_NML_04
(PID.TID 0000.0001) > atemp_lon0        = 0.00D0,
(PID.TID 0000.0001) > atemp_lon_inc     = 1.875D0,
(PID.TID 0000.0001) > atemp_lat0        = -88.5420D0,
(PID.TID 0000.0001) > atemp_lat_inc     = 1.8888, 1.9000, 1.9024, 1.9034, 1.9039, 1.9042,
(PID.TID 0000.0001) >     1.9042, 1.9044, 1.9045, 1.9045, 1.9046, 1.9046, 1.9046, 1.9046,
(PID.TID 0000.0001) >     1.9047, 1.9046, 1.9047, 1.9047, 1.9047, 1.9047, 1.9047, 1.9047,
(PID.TID 0000.0001) >     1.9047, 1.9047, 1.9047, 1.9047, 1.9048, 1.9047, 1.9047, 1.9047,
(PID.TID 0000.0001) >     1.9047, 1.9048, 1.9047, 1.9047, 1.9048, 1.9047, 1.9047, 1.9048,
(PID.TID 0000.0001) >     1.9047, 1.9047, 1.9048, 1.9047, 1.9047, 1.9048, 1.9047, 1.9047,
(PID.TID 0000.0001) >     1.9048, 1.9047, 1.9047, 1.9048, 1.9047, 1.9047, 1.9048, 1.9047,
(PID.TID 0000.0001) >     1.9047, 1.9048, 1.9047, 1.9047, 1.9048, 1.9047, 1.9047, 1.9048,
(PID.TID 0000.0001) >     1.9047, 1.9047, 1.9047, 1.9047, 1.9048, 1.9047, 1.9047, 1.9047,
(PID.TID 0000.0001) >     1.9047, 1.9047, 1.9047, 1.9047, 1.9047, 1.9047, 1.9047, 1.9046,
(PID.TID 0000.0001) >     1.9047, 1.9046, 1.9046, 1.9046, 1.9046, 1.9045, 1.9045, 1.9044,
(PID.TID 0000.0001) >     1.9042, 1.9042, 1.9039, 1.9034, 1.9024, 1.9000, 1.8888, 1.8888,
(PID.TID 0000.0001) > atemp_nlon        = 192,
(PID.TID 0000.0001) > atemp_nlat        = 94,
(PID.TID 0000.0001) >#
(PID.TID 0000.0001) > aqh_lon0          = 0.00D0,
(PID.TID 0000.0001) > aqh_lon_inc       = 1.875D0,
(PID.TID 0000.0001) > aqh_lat0          = -88.5420D0,
(PID.TID 0000.0001) > aqh_lat_inc       = 1.8888, 1.9000, 1.9024, 1.9034, 1.9039, 1.9042,
(PID.TID 0000.0001) >     1.9042, 1.9044, 1.9045, 1.9045, 1.9046, 1.9046, 1.9046, 1.9046,
(PID.TID 0000.0001) >     1.9047, 1.9046, 1.9047, 1.9047, 1.9047, 1.9047, 1.9047, 1.9047,
(PID.TID 0000.0001) >     1.9047, 1.9047, 1.9047, 1.9047, 1.9048, 1.9047, 1.9047, 1.9047,
(PID.TID 0000.0001) >     1.9047, 1.9048, 1.9047, 1.9047, 1.9048, 1.9047, 1.9047, 1.9048,
(PID.TID 0000.0001) >     1.9047, 1.9047, 1.9048, 1.9047, 1.9047, 1.9048, 1.9047, 1.9047,
(PID.TID 0000.0001) >     1.9048, 1.9047, 1.9047, 1.9048, 1.9047, 1.9047, 1.9048, 1.9047,
(PID.TID 0000.0001) >     1.9047, 1.9048, 1.9047, 1.9047, 1.9048, 1.9047, 1.9047, 1.9048,
(PID.TID 0000.0001) >     1.9047, 1.9047, 1.9047, 1.9047, 1.9048, 1.9047, 1.9047, 1.9047,
(PID.TID 0000.0001) >     1.9047, 1.9047, 1.9047, 1.9047, 1.9047, 1.9047, 1.9047, 1.9046,
(PID.TID 0000.0001) >     1.9047, 1.9046, 1.9046, 1.9046, 1.9046, 1.9045, 1.9045, 1.9044,
(PID.TID 0000.0001) >     1.9042, 1.9042, 1.9039, 1.9034, 1.9024, 1.9000, 1.8888, 1.8888,
(PID.TID 0000.0001) > aqh_nlon          = 192,
(PID.TID 0000.0001) > aqh_nlat          = 94,
(PID.TID 0000.0001) >#
(PID.TID 0000.0001) > precip_lon0       = 0.00D0,
(PID.TID 0000.0001) > precip_lon_inc    = 1.875D0,
(PID.TID 0000.0001) > precip_lat0       = -88.5420D0,
(PID.TID 0000.0001) > precip_lat_inc    = 1.8888, 1.9000, 1.9024, 1.9034, 1.9039, 1.9042,
(PID.TID 0000.0001) >     1.9042, 1.9044, 1.9045, 1.9045, 1.9046, 1.9046, 1.9046, 1.9046,
(PID.TID 0000.0001) >     1.9047, 1.9046, 1.9047, 1.9047, 1.9047, 1.9047, 1.9047, 1.9047,
(PID.TID 0000.0001) >     1.9047, 1.9047, 1.9047, 1.9047, 1.9048, 1.9047, 1.9047, 1.9047,
(PID.TID 0000.0001) >     1.9047, 1.9048, 1.9047, 1.9047, 1.9048, 1.9047, 1.9047, 1.9048,
(PID.TID 0000.0001) >     1.9047, 1.9047, 1.9048, 1.9047, 1.9047, 1.9048, 1.9047, 1.9047,
(PID.TID 0000.0001) >     1.9048, 1.9047, 1.9047, 1.9048, 1.9047, 1.9047, 1.9048, 1.9047,
(PID.TID 0000.0001) >     1.9047, 1.9048, 1.9047, 1.9047, 1.9048, 1.9047, 1.9047, 1.9048,
(PID.TID 0000.0001) >     1.9047, 1.9047, 1.9047, 1.9047, 1.9048, 1.9047, 1.9047, 1.9047,
(PID.TID 0000.0001) >     1.9047, 1.9047, 1.9047, 1.9047, 1.9047, 1.9047, 1.9047, 1.9046,
(PID.TID 0000.0001) >     1.9047, 1.9046, 1.9046, 1.9046, 1.9046, 1.9045, 1.9045, 1.9044,
(PID.TID 0000.0001) >     1.9042, 1.9042, 1.9039, 1.9034, 1.9024, 1.9000, 1.8888, 1.8888,
(PID.TID 0000.0001) > precip_nlon       = 192,
(PID.TID 0000.0001) > precip_nlat       = 94,
(PID.TID 0000.0001) >#
(PID.TID 0000.0001) > runoff_lon0       = 0.50D0,
(PID.TID 0000.0001) > runoff_lon_inc    = 1.0D0,
(PID.TID 0000.0001) > runoff_lat0       = -89.5D0,
(PID.TID 0000.0001) > runoff_lat_inc    = 179*1.,
(PID.TID 0000.0001) > runoff_nlon       = 360,
(PID.TID 0000.0001) > runoff_nlat       = 180,
(PID.TID 0000.0001) >#
(PID.TID 0000.0001) > uwind_lon0        = 0.00D0,
(PID.TID 0000.0001) > uwind_lon_inc     = 1.875D0,
(PID.TID 0000.0001) > uwind_lat0        = -88.5420D0,
(PID.TID 0000.0001) > uwind_lat_inc     = 1.8888, 1.9000, 1.9024, 1.9034, 1.9039, 1.9042,
(PID.TID 0000.0001) >     1.9042, 1.9044, 1.9045, 1.9045, 1.9046, 1.9046, 1.9046, 1.9046,
(PID.TID 0000.0001) >     1.9047, 1.9046, 1.9047, 1.9047, 1.9047, 1.9047, 1.9047, 1.9047,
(PID.TID 0000.0001) >     1.9047, 1.9047, 1.9047, 1.9047, 1.9048, 1.9047, 1.9047, 1.9047,
(PID.TID 0000.0001) >     1.9047, 1.9048, 1.9047, 1.9047, 1.9048, 1.9047, 1.9047, 1.9048,
(PID.TID 0000.0001) >     1.9047, 1.9047, 1.9048, 1.9047, 1.9047, 1.9048, 1.9047, 1.9047,
(PID.TID 0000.0001) >     1.9048, 1.9047, 1.9047, 1.9048, 1.9047, 1.9047, 1.9048, 1.9047,
(PID.TID 0000.0001) >     1.9047, 1.9048, 1.9047, 1.9047, 1.9048, 1.9047, 1.9047, 1.9048,
(PID.TID 0000.0001) >     1.9047, 1.9047, 1.9047, 1.9047, 1.9048, 1.9047, 1.9047, 1.9047,
(PID.TID 0000.0001) >     1.9047, 1.9047, 1.9047, 1.9047, 1.9047, 1.9047, 1.9047, 1.9046,
(PID.TID 0000.0001) >     1.9047, 1.9046, 1.9046, 1.9046, 1.9046, 1.9045, 1.9045, 1.9044,
(PID.TID 0000.0001) >     1.9042, 1.9042, 1.9039, 1.9034, 1.9024, 1.9000, 1.8888, 1.8888,
(PID.TID 0000.0001) > uwind_nlon        = 192,
(PID.TID 0000.0001) > uwind_nlat        = 94,
(PID.TID 0000.0001) >#
(PID.TID 0000.0001) > vwind_lon0        = 0.00D0,
(PID.TID 0000.0001) > vwind_lon_inc     = 1.875D0,
(PID.TID 0000.0001) > vwind_lat0        = -88.5420D0,
(PID.TID 0000.0001) > vwind_lat_inc     = 1.8888, 1.9000, 1.9024, 1.9034, 1.9039, 1.9042,
(PID.TID 0000.0001) >     1.9042, 1.9044, 1.9045, 1.9045, 1.9046, 1.9046, 1.9046, 1.9046,
(PID.TID 0000.0001) >     1.9047, 1.9046, 1.9047, 1.9047, 1.9047, 1.9047, 1.9047, 1.9047,
(PID.TID 0000.0001) >     1.9047, 1.9047, 1.9047, 1.9047, 1.9048, 1.9047, 1.9047, 1.9047,
(PID.TID 0000.0001) >     1.9047, 1.9048, 1.9047, 1.9047, 1.9048, 1.9047, 1.9047, 1.9048,
(PID.TID 0000.0001) >     1.9047, 1.9047, 1.9048, 1.9047, 1.9047, 1.9048, 1.9047, 1.9047,
(PID.TID 0000.0001) >     1.9048, 1.9047, 1.9047, 1.9048, 1.9047, 1.9047, 1.9048, 1.9047,
(PID.TID 0000.0001) >     1.9047, 1.9048, 1.9047, 1.9047, 1.9048, 1.9047, 1.9047, 1.9048,
(PID.TID 0000.0001) >     1.9047, 1.9047, 1.9047, 1.9047, 1.9048, 1.9047, 1.9047, 1.9047,
(PID.TID 0000.0001) >     1.9047, 1.9047, 1.9047, 1.9047, 1.9047, 1.9047, 1.9047, 1.9046,
(PID.TID 0000.0001) >     1.9047, 1.9046, 1.9046, 1.9046, 1.9046, 1.9045, 1.9045, 1.9044,
(PID.TID 0000.0001) >     1.9042, 1.9042, 1.9039, 1.9034, 1.9024, 1.9000, 1.8888, 1.8888,
(PID.TID 0000.0001) > vwind_nlon        = 192,
(PID.TID 0000.0001) > vwind_nlat        = 94,
(PID.TID 0000.0001) >#
(PID.TID 0000.0001) > swdown_lon0       = 0.00D0,
(PID.TID 0000.0001) > swdown_lon_inc    = 1.875D0,
(PID.TID 0000.0001) > swdown_lat0       = -88.5420D0,
(PID.TID 0000.0001) > swdown_lat_inc    = 1.8888, 1.9000, 1.9024, 1.9034, 1.9039, 1.9042,
(PID.TID 0000.0001) >     1.9042, 1.9044, 1.9045, 1.9045, 1.9046, 1.9046, 1.9046, 1.9046,
(PID.TID 0000.0001) >     1.9047, 1.9046, 1.9047, 1.9047, 1.9047, 1.9047, 1.9047, 1.9047,
(PID.TID 0000.0001) >     1.9047, 1.9047, 1.9047, 1.9047, 1.9048, 1.9047, 1.9047, 1.9047,
(PID.TID 0000.0001) >     1.9047, 1.9048, 1.9047, 1.9047, 1.9048, 1.9047, 1.9047, 1.9048,
(PID.TID 0000.0001) >     1.9047, 1.9047, 1.9048, 1.9047, 1.9047, 1.9048, 1.9047, 1.9047,
(PID.TID 0000.0001) >     1.9048, 1.9047, 1.9047, 1.9048, 1.9047, 1.9047, 1.9048, 1.9047,
(PID.TID 0000.0001) >     1.9047, 1.9048, 1.9047, 1.9047, 1.9048, 1.9047, 1.9047, 1.9048,
(PID.TID 0000.0001) >     1.9047, 1.9047, 1.9047, 1.9047, 1.9048, 1.9047, 1.9047, 1.9047,
(PID.TID 0000.0001) >     1.9047, 1.9047, 1.9047, 1.9047, 1.9047, 1.9047, 1.9047, 1.9046,
(PID.TID 0000.0001) >     1.9047, 1.9046, 1.9046, 1.9046, 1.9046, 1.9045, 1.9045, 1.9044,
(PID.TID 0000.0001) >     1.9042, 1.9042, 1.9039, 1.9034, 1.9024, 1.9000, 1.8888, 1.8888,
(PID.TID 0000.0001) > swdown_nlon       = 192,
(PID.TID 0000.0001) > swdown_nlat       = 94,
(PID.TID 0000.0001) >#
(PID.TID 0000.0001) > lwdown_lon0       = 0.00D0,
(PID.TID 0000.0001) > lwdown_lon_inc    = 1.875D0,
(PID.TID 0000.0001) > lwdown_lat0       = -88.5420D0,
(PID.TID 0000.0001) > lwdown_lat_inc    = 1.8888, 1.9000, 1.9024, 1.9034, 1.9039, 1.9042,
(PID.TID 0000.0001) >     1.9042, 1.9044, 1.9045, 1.9045, 1.9046, 1.9046, 1.9046, 1.9046,
(PID.TID 0000.0001) >     1.9047, 1.9046, 1.9047, 1.9047, 1.9047, 1.9047, 1.9047, 1.9047,
(PID.TID 0000.0001) >     1.9047, 1.9047, 1.9047, 1.9047, 1.9048, 1.9047, 1.9047, 1.9047,
(PID.TID 0000.0001) >     1.9047, 1.9048, 1.9047, 1.9047, 1.9048, 1.9047, 1.9047, 1.9048,
(PID.TID 0000.0001) >     1.9047, 1.9047, 1.9048, 1.9047, 1.9047, 1.9048, 1.9047, 1.9047,
(PID.TID 0000.0001) >     1.9048, 1.9047, 1.9047, 1.9048, 1.9047, 1.9047, 1.9048, 1.9047,
(PID.TID 0000.0001) >     1.9047, 1.9048, 1.9047, 1.9047, 1.9048, 1.9047, 1.9047, 1.9048,
(PID.TID 0000.0001) >     1.9047, 1.9047, 1.9047, 1.9047, 1.9048, 1.9047, 1.9047, 1.9047,
(PID.TID 0000.0001) >     1.9047, 1.9047, 1.9047, 1.9047, 1.9047, 1.9047, 1.9047, 1.9046,
(PID.TID 0000.0001) >     1.9047, 1.9046, 1.9046, 1.9046, 1.9046, 1.9045, 1.9045, 1.9044,
(PID.TID 0000.0001) >     1.9042, 1.9042, 1.9039, 1.9034, 1.9024, 1.9000, 1.8888, 1.8888,
(PID.TID 0000.0001) > lwdown_nlon       = 192,
(PID.TID 0000.0001) > lwdown_nlat       = 94,
(PID.TID 0000.0001) >#
(PID.TID 0000.0001) > climsss_lon0      = 0.5,
(PID.TID 0000.0001) > climsss_lon_inc   = 1.,
(PID.TID 0000.0001) > climsss_lat0      = -89.5,
(PID.TID 0000.0001) > climsss_lat_inc   = 179*1.,
(PID.TID 0000.0001) > climsss_nlon      = 360,
(PID.TID 0000.0001) > climsss_nlat      = 180,
(PID.TID 0000.0001) > /
(PID.TID 0000.0001) >#
(PID.TID 0000.0001) > &EXF_NML_OBCS
(PID.TID 0000.0001) > obcsNstartdate1   = 19990219,
(PID.TID 0000.0001) > obcsNstartdate2   = 060000,
(PID.TID 0000.0001) > obcsNperiod       = 2635200.0,
(PID.TID 0000.0001) >#
(PID.TID 0000.0001) > obcsEstartdate1   = 19990219,
(PID.TID 0000.0001) > obcsEstartdate2   = 060000,
(PID.TID 0000.0001) > obcsEperiod       = 2635200.0,
(PID.TID 0000.0001) >#
(PID.TID 0000.0001) > obcsWstartdate1   = 19990219,
(PID.TID 0000.0001) > obcsWstartdate2   = 060000,
(PID.TID 0000.0001) > obcsWperiod       = 2635200.0,
(PID.TID 0000.0001) > /
(PID.TID 0000.0001) 
(PID.TID 0000.0001) EXF_READPARMS: reading EXF_NML_01
(PID.TID 0000.0001) EXF_READPARMS: reading EXF_NML_02
(PID.TID 0000.0001) EXF_READPARMS: reading EXF_NML_03
(PID.TID 0000.0001) EXF_READPARMS: reading EXF_NML_04
(PID.TID 0000.0001) EXF_READPARMS: reading EXF_NML_OBCS
(PID.TID 0000.0001) EXF_READPARMS: finished reading data.exf
(PID.TID 0000.0001)  KPP_INIT: opening data.kpp
(PID.TID 0000.0001)  OPEN_COPY_DATA_FILE: opening file data.kpp
(PID.TID 0000.0001) // =======================================================
(PID.TID 0000.0001) // Parameter file "data.kpp"
(PID.TID 0000.0001) // =======================================================
(PID.TID 0000.0001) ># KPP parameters
(PID.TID 0000.0001) > &KPP_PARM01
(PID.TID 0000.0001) > KPPmixingMaps   = .FALSE.,
(PID.TID 0000.0001) > KPPwriteState   = .FALSE.,
(PID.TID 0000.0001) > kpp_dumpFreq    = 0.
(PID.TID 0000.0001) > kpp_tavefreq    = 0.
(PID.TID 0000.0001) > Ricr            = 0.3559
(PID.TID 0000.0001) > Riinfty         = 0.6998
(PID.TID 0000.0001) > /
(PID.TID 0000.0001) 
(PID.TID 0000.0001)  KPP_INIT: finished reading data.kpp
(PID.TID 0000.0001) 
(PID.TID 0000.0001)  SEAICE_READPARMS: opening data.seaice
(PID.TID 0000.0001)  OPEN_COPY_DATA_FILE: opening file data.seaice
(PID.TID 0000.0001) // =======================================================
(PID.TID 0000.0001) // Parameter file "data.seaice"
(PID.TID 0000.0001) // =======================================================
(PID.TID 0000.0001) ># SEAICE parameters
(PID.TID 0000.0001) > &SEAICE_PARM01
(PID.TID 0000.0001) >#- seaice dynamics params:
(PID.TID 0000.0001) ># LSR_ERROR          = 1.E-12,
(PID.TID 0000.0001) >  SEAICE_no_slip     = .TRUE.,
(PID.TID 0000.0001) >  SEAICE_drag        = 0.001,
(PID.TID 0000.0001) ># Depending on vertical resolution this angle should have a value > 0
(PID.TID 0000.0001) >#  (e.g., 25deg for drF(1)=10m)
(PID.TID 0000.0001) ># SEAICE_waterTurnAngle = 0.0,
(PID.TID 0000.0001) >#- seaice state & transport params:
(PID.TID 0000.0001) >  SEAICE_salt0       = 4.0,
(PID.TID 0000.0001) >  SEAICEadvScheme    = 7,
(PID.TID 0000.0001) ># for adjoint simulations you will need
(PID.TID 0000.0001) ># SEAICEadvScheme    = 30,
(PID.TID 0000.0001) >#- seaice thermodyn params:
(PID.TID 0000.0001) >  SEAICE_multDim     = 7,
(PID.TID 0000.0001) >  SEAICE_wetAlbTemp  = 0.0,
(PID.TID 0000.0001) ># this value should be default for the McPhee parameterization
(PID.TID 0000.0001) >  SEAICE_mcPheeTaper = 0.92,
(PID.TID 0000.0001) >#- seaice I/O params:
(PID.TID 0000.0001) >  SEAICEwriteState   = .TRUE.,
(PID.TID 0000.0001) > /
(PID.TID 0000.0001) >
(PID.TID 0000.0001) > &SEAICE_PARM03
(PID.TID 0000.0001) >  SItrNumInUse       = 2,
(PID.TID 0000.0001) >  SItrName(1)        = 'age',
(PID.TID 0000.0001) >  SItrMate(1)        = 'AREA',
(PID.TID 0000.0001) >  SItrUnit(1)        = 's',
(PID.TID 0000.0001) >  SItrName(2)        = 'one',
(PID.TID 0000.0001) > /
(PID.TID 0000.0001) 
(PID.TID 0000.0001)  SEAICE_READPARMS: finished reading data.seaice
(PID.TID 0000.0001)  OBCS_READPARMS: opening data.obcs
(PID.TID 0000.0001)  OPEN_COPY_DATA_FILE: opening file data.obcs
(PID.TID 0000.0001) // =======================================================
(PID.TID 0000.0001) // Parameter file "data.obcs"
(PID.TID 0000.0001) // =======================================================
(PID.TID 0000.0001) >#
(PID.TID 0000.0001) ># ***************
(PID.TID 0000.0001) ># Open boundaries
(PID.TID 0000.0001) ># ***************
(PID.TID 0000.0001) > &OBCS_PARM01
(PID.TID 0000.0001) > OB_Jnorth =   76*72,
(PID.TID 0000.0001) > OB_Iwest  =   72*1,
(PID.TID 0000.0001) >#
(PID.TID 0000.0001) >#OBCSfixTopo=.false.,
(PID.TID 0000.0001) >#
(PID.TID 0000.0001) > useOBCSprescribe=.TRUE.,
(PID.TID 0000.0001) >#
(PID.TID 0000.0001) > OBNsFile='OBNs_baltic_76x72.stable',
(PID.TID 0000.0001) > OBNtFile='OBNt_baltic_76x72.stable',
(PID.TID 0000.0001) > OBNuFile='OBNu_baltic_76x72.bin',
(PID.TID 0000.0001) > OBNvFile='OBNv_baltic_76x72.bin',
(PID.TID 0000.0001) > OBWsFile='OBWs_baltic_76x72.stable',
(PID.TID 0000.0001) > OBWtFile='OBWt_baltic_76x72.stable',
(PID.TID 0000.0001) > OBWuFile='OBWu_baltic_76x72.bin',
(PID.TID 0000.0001) > OBWvFile='OBWv_baltic_76x72.bin',
(PID.TID 0000.0001) > OBNptrFile(1)='OBN_PO4_76x72x24_baltic_128.bin',
(PID.TID 0000.0001) > OBWptrFile(1)='OBW_PO4_76x72x24_baltic_128.bin',
(PID.TID 0000.0001) > OBNptrFile(2)='OBN_NO3_76x72x24_baltic_128.bin',
(PID.TID 0000.0001) > OBWptrFile(2)='OBW_NO3_76x72x24_baltic_128.bin',
(PID.TID 0000.0001) > OBNptrFile(3)='OBN_FeT_76x72x24_baltic_128.bin',
(PID.TID 0000.0001) > OBWptrFile(3)='OBW_FeT_76x72x24_baltic_128.bin',
(PID.TID 0000.0001) > OBNptrFile(4)='OBN_SiO2_76x72x24_baltic_128.bin',
(PID.TID 0000.0001) > OBWptrFile(4)='OBW_SiO2_76x72x24_baltic_128.bin',
(PID.TID 0000.0001) > OBNptrFile(5)='OBN_DOP_76x72x24_baltic_128.bin',
(PID.TID 0000.0001) > OBWptrFile(5)='OBW_DOP_76x72x24_baltic_128.bin',
(PID.TID 0000.0001) > OBNptrFile(6)='OBN_DON_76x72x24_baltic_128.bin',
(PID.TID 0000.0001) > OBWptrFile(6)='OBW_DON_76x72x24_baltic_128.bin',
(PID.TID 0000.0001) > OBNptrFile(7)='OBN_DOFe_76x72x24_baltic_128.bin',
(PID.TID 0000.0001) > OBWptrFile(7)='OBW_DOFe_76x72x24_baltic_128.bin',
(PID.TID 0000.0001) > OBNptrFile(8)='OBN_ZOO1P_76x72x24_baltic_128.bin',
(PID.TID 0000.0001) > OBWptrFile(8)='OBW_ZOO1P_76x72x24_baltic_128.bin',
(PID.TID 0000.0001) > OBNptrFile(9)='OBN_ZOO1N_76x72x24_baltic_128.bin',
(PID.TID 0000.0001) > OBWptrFile(9)='OBW_ZOO1N_76x72x24_baltic_128.bin',
(PID.TID 0000.0001) > OBNptrFile(10)='OBN_ZOO1Fe_76x72x24_baltic_128.bin',
(PID.TID 0000.0001) > OBWptrFile(10)='OBW_ZOO1Fe_76x72x24_baltic_128.bin',
(PID.TID 0000.0001) > OBNptrFile(11)='OBN_ZOO1Si_76x72x24_baltic_128.bin',
(PID.TID 0000.0001) > OBWptrFile(11)='OBW_ZOO1Si_76x72x24_baltic_128.bin',
(PID.TID 0000.0001) > OBNptrFile(12)='OBN_ZOO2P_76x72x24_baltic_128.bin',
(PID.TID 0000.0001) > OBWptrFile(12)='OBW_ZOO2P_76x72x24_baltic_128.bin',
(PID.TID 0000.0001) > OBNptrFile(13)='OBN_ZOO2N_76x72x24_baltic_128.bin',
(PID.TID 0000.0001) > OBWptrFile(13)='OBW_ZOO2N_76x72x24_baltic_128.bin',
(PID.TID 0000.0001) > OBNptrFile(14)='OBN_ZOO2Fe_76x72x24_baltic_128.bin',
(PID.TID 0000.0001) > OBWptrFile(14)='OBW_ZOO2Fe_76x72x24_baltic_128.bin',
(PID.TID 0000.0001) > OBNptrFile(15)='OBN_ZOO2Si_76x72x24_baltic_128.bin',
(PID.TID 0000.0001) > OBWptrFile(15)='OBW_ZOO2Si_76x72x24_baltic_128.bin',
(PID.TID 0000.0001) > OBNptrFile(16)='OBN_POP_76x72x24_baltic_128.bin',
(PID.TID 0000.0001) > OBWptrFile(16)='OBW_POP_76x72x24_baltic_128.bin',
(PID.TID 0000.0001) > OBNptrFile(17)='OBN_PON_76x72x24_baltic_128.bin',
(PID.TID 0000.0001) > OBWptrFile(17)='OBW_PON_76x72x24_baltic_128.bin',
(PID.TID 0000.0001) > OBNptrFile(18)='OBN_POFe_76x72x24_baltic_128.bin',
(PID.TID 0000.0001) > OBWptrFile(18)='OBW_POFe_76x72x24_baltic_128.bin',
(PID.TID 0000.0001) > OBNptrFile(19)='OBN_POSi_76x72x24_baltic_128.bin',
(PID.TID 0000.0001) > OBWptrFile(19)='OBW_POSi_76x72x24_baltic_128.bin',
(PID.TID 0000.0001) > OBNptrFile(20)='OBN_NH4_76x72x24_baltic_128.bin',
(PID.TID 0000.0001) > OBWptrFile(20)='OBW_NH4_76x72x24_baltic_128.bin',
(PID.TID 0000.0001) > OBNptrFile(21)='OBN_NO2_76x72x24_baltic_128.bin',
(PID.TID 0000.0001) > OBWptrFile(21)='OBW_NO2_76x72x24_baltic_128.bin',
(PID.TID 0000.0001) > OBNptrFile(22)='OBN_Phy01_76x72x24_baltic_128.bin',
(PID.TID 0000.0001) > OBWptrFile(22)='OBW_Phy01_76x72x24_baltic_128.bin',
(PID.TID 0000.0001) > OBNptrFile(23)='OBN_Phy02_76x72x24_baltic_128.bin',
(PID.TID 0000.0001) > OBWptrFile(23)='OBW_Phy02_76x72x24_baltic_128.bin',
(PID.TID 0000.0001) > OBNptrFile(24)='OBN_Phy03_76x72x24_baltic_128.bin',
(PID.TID 0000.0001) > OBWptrFile(24)='OBW_Phy03_76x72x24_baltic_128.bin',
(PID.TID 0000.0001) > OBNptrFile(25)='OBN_Phy04_76x72x24_baltic_128.bin',
(PID.TID 0000.0001) > OBWptrFile(25)='OBW_Phy04_76x72x24_baltic_128.bin',
(PID.TID 0000.0001) > OBNptrFile(26)='OBN_Phy05_76x72x24_baltic_128.bin',
(PID.TID 0000.0001) > OBWptrFile(26)='OBW_Phy05_76x72x24_baltic_128.bin',
(PID.TID 0000.0001) > OBNptrFile(27)='OBN_Phy06_76x72x24_baltic_128.bin',
(PID.TID 0000.0001) > OBWptrFile(27)='OBW_Phy06_76x72x24_baltic_128.bin',
(PID.TID 0000.0001) > OBNptrFile(28)='OBN_Phy07_76x72x24_baltic_128.bin',
(PID.TID 0000.0001) > OBWptrFile(28)='OBW_Phy07_76x72x24_baltic_128.bin',
(PID.TID 0000.0001) > OBNptrFile(29)='OBN_Phy08_76x72x24_baltic_128.bin',
(PID.TID 0000.0001) > OBWptrFile(29)='OBW_Phy08_76x72x24_baltic_128.bin',
(PID.TID 0000.0001) > OBNptrFile(30)='OBN_Phy09_76x72x24_baltic_128.bin',
(PID.TID 0000.0001) > OBWptrFile(30)='OBW_Phy09_76x72x24_baltic_128.bin',
(PID.TID 0000.0001) > OBNptrFile(31)='OBN_Phy10_76x72x24_baltic_128.bin',
(PID.TID 0000.0001) > OBWptrFile(31)='OBW_Phy10_76x72x24_baltic_128.bin',
(PID.TID 0000.0001) > OBNptrFile(32)='OBN_Phy11_76x72x24_baltic_128.bin',
(PID.TID 0000.0001) > OBWptrFile(32)='OBW_Phy11_76x72x24_baltic_128.bin',
(PID.TID 0000.0001) > OBNptrFile(33)='OBN_Phy12_76x72x24_baltic_128.bin',
(PID.TID 0000.0001) > OBWptrFile(33)='OBW_Phy12_76x72x24_baltic_128.bin',
(PID.TID 0000.0001) > OBNptrFile(34)='OBN_Phy13_76x72x24_baltic_128.bin',
(PID.TID 0000.0001) > OBWptrFile(34)='OBW_Phy13_76x72x24_baltic_128.bin',
(PID.TID 0000.0001) > OBNptrFile(35)='OBN_Phy14_76x72x24_baltic_128.bin',
(PID.TID 0000.0001) > OBWptrFile(35)='OBW_Phy14_76x72x24_baltic_128.bin',
(PID.TID 0000.0001) > OBNptrFile(36)='OBN_Phy15_76x72x24_baltic_128.bin',
(PID.TID 0000.0001) > OBWptrFile(36)='OBW_Phy15_76x72x24_baltic_128.bin',
(PID.TID 0000.0001) > OBNptrFile(37)='OBN_Phy16_76x72x24_baltic_128.bin',
(PID.TID 0000.0001) > OBWptrFile(37)='OBW_Phy16_76x72x24_baltic_128.bin',
(PID.TID 0000.0001) > OBNptrFile(38)='OBN_Phy17_76x72x24_baltic_128.bin',
(PID.TID 0000.0001) > OBWptrFile(38)='OBW_Phy17_76x72x24_baltic_128.bin',
(PID.TID 0000.0001) > OBNptrFile(39)='OBN_Phy18_76x72x24_baltic_128.bin',
(PID.TID 0000.0001) > OBWptrFile(39)='OBW_Phy18_76x72x24_baltic_128.bin',
(PID.TID 0000.0001) > OBNptrFile(40)='OBN_Phy19_76x72x24_baltic_128.bin',
(PID.TID 0000.0001) > OBWptrFile(40)='OBW_Phy19_76x72x24_baltic_128.bin',
(PID.TID 0000.0001) > OBNptrFile(41)='OBN_Phy20_76x72x24_baltic_128.bin',
(PID.TID 0000.0001) > OBWptrFile(41)='OBW_Phy20_76x72x24_baltic_128.bin',
(PID.TID 0000.0001) > OBNptrFile(42)='OBN_Phy21_76x72x24_baltic_128.bin',
(PID.TID 0000.0001) > OBWptrFile(42)='OBW_Phy21_76x72x24_baltic_128.bin',
(PID.TID 0000.0001) > OBNptrFile(43)='OBN_Phy22_76x72x24_baltic_128.bin',
(PID.TID 0000.0001) > OBWptrFile(43)='OBW_Phy22_76x72x24_baltic_128.bin',
(PID.TID 0000.0001) > OBNptrFile(44)='OBN_Phy23_76x72x24_baltic_128.bin',
(PID.TID 0000.0001) > OBWptrFile(44)='OBW_Phy23_76x72x24_baltic_128.bin',
(PID.TID 0000.0001) > OBNptrFile(45)='OBN_Phy24_76x72x24_baltic_128.bin',
(PID.TID 0000.0001) > OBWptrFile(45)='OBW_Phy24_76x72x24_baltic_128.bin',
(PID.TID 0000.0001) > OBNptrFile(46)='OBN_Phy25_76x72x24_baltic_128.bin',
(PID.TID 0000.0001) > OBWptrFile(46)='OBW_Phy25_76x72x24_baltic_128.bin',
(PID.TID 0000.0001) > OBNptrFile(47)='OBN_Phy26_76x72x24_baltic_128.bin',
(PID.TID 0000.0001) > OBWptrFile(47)='OBW_Phy26_76x72x24_baltic_128.bin',
(PID.TID 0000.0001) > OBNptrFile(48)='OBN_Phy27_76x72x24_baltic_128.bin',
(PID.TID 0000.0001) > OBWptrFile(48)='OBW_Phy27_76x72x24_baltic_128.bin',
(PID.TID 0000.0001) > OBNptrFile(49)='OBN_Phy28_76x72x24_baltic_128.bin',
(PID.TID 0000.0001) > OBWptrFile(49)='OBW_Phy28_76x72x24_baltic_128.bin',
(PID.TID 0000.0001) > OBNptrFile(50)='OBN_Phy29_76x72x24_baltic_128.bin',
(PID.TID 0000.0001) > OBWptrFile(50)='OBW_Phy29_76x72x24_baltic_128.bin',
(PID.TID 0000.0001) > OBNptrFile(51)='OBN_Phy30_76x72x24_baltic_128.bin',
(PID.TID 0000.0001) > OBWptrFile(51)='OBW_Phy30_76x72x24_baltic_128.bin',
(PID.TID 0000.0001) > OBNptrFile(52)='OBN_Phy31_76x72x24_baltic_128.bin',
(PID.TID 0000.0001) > OBWptrFile(52)='OBW_Phy31_76x72x24_baltic_128.bin',
(PID.TID 0000.0001) > OBNptrFile(53)='OBN_Phy32_76x72x24_baltic_128.bin',
(PID.TID 0000.0001) > OBWptrFile(53)='OBW_Phy32_76x72x24_baltic_128.bin',
(PID.TID 0000.0001) > OBNptrFile(54)='OBN_Phy33_76x72x24_baltic_128.bin',
(PID.TID 0000.0001) > OBWptrFile(54)='OBW_Phy33_76x72x24_baltic_128.bin',
(PID.TID 0000.0001) > OBNptrFile(55)='OBN_Phy34_76x72x24_baltic_128.bin',
(PID.TID 0000.0001) > OBWptrFile(55)='OBW_Phy34_76x72x24_baltic_128.bin',
(PID.TID 0000.0001) > OBNptrFile(56)='OBN_Phy35_76x72x24_baltic_128.bin',
(PID.TID 0000.0001) > OBWptrFile(56)='OBW_Phy35_76x72x24_baltic_128.bin',
(PID.TID 0000.0001) > OBNptrFile(57)='OBN_Phy36_76x72x24_baltic_128.bin',
(PID.TID 0000.0001) > OBWptrFile(57)='OBW_Phy36_76x72x24_baltic_128.bin',
(PID.TID 0000.0001) > OBNptrFile(58)='OBN_Phy37_76x72x24_baltic_128.bin',
(PID.TID 0000.0001) > OBWptrFile(58)='OBW_Phy37_76x72x24_baltic_128.bin',
(PID.TID 0000.0001) > OBNptrFile(59)='OBN_Phy38_76x72x24_baltic_128.bin',
(PID.TID 0000.0001) > OBWptrFile(59)='OBW_Phy38_76x72x24_baltic_128.bin',
(PID.TID 0000.0001) > OBNptrFile(60)='OBN_Phy39_76x72x24_baltic_128.bin',
(PID.TID 0000.0001) > OBWptrFile(60)='OBW_Phy39_76x72x24_baltic_128.bin',
(PID.TID 0000.0001) > OBNptrFile(61)='OBN_Phy40_76x72x24_baltic_128.bin',
(PID.TID 0000.0001) > OBWptrFile(61)='OBW_Phy40_76x72x24_baltic_128.bin',
(PID.TID 0000.0001) > OBNptrFile(62)='OBN_Phy41_76x72x24_baltic_128.bin',
(PID.TID 0000.0001) > OBWptrFile(62)='OBW_Phy41_76x72x24_baltic_128.bin',
(PID.TID 0000.0001) > OBNptrFile(63)='OBN_Phy42_76x72x24_baltic_128.bin',
(PID.TID 0000.0001) > OBWptrFile(63)='OBW_Phy42_76x72x24_baltic_128.bin',
(PID.TID 0000.0001) > OBNptrFile(64)='OBN_Phy43_76x72x24_baltic_128.bin',
(PID.TID 0000.0001) > OBWptrFile(64)='OBW_Phy43_76x72x24_baltic_128.bin',
(PID.TID 0000.0001) > OBNptrFile(65)='OBN_Phy44_76x72x24_baltic_128.bin',
(PID.TID 0000.0001) > OBWptrFile(65)='OBW_Phy44_76x72x24_baltic_128.bin',
(PID.TID 0000.0001) > OBNptrFile(66)='OBN_Phy45_76x72x24_baltic_128.bin',
(PID.TID 0000.0001) > OBWptrFile(66)='OBW_Phy45_76x72x24_baltic_128.bin',
(PID.TID 0000.0001) > OBNptrFile(67)='OBN_Phy46_76x72x24_baltic_128.bin',
(PID.TID 0000.0001) > OBWptrFile(67)='OBW_Phy46_76x72x24_baltic_128.bin',
(PID.TID 0000.0001) > OBNptrFile(68)='OBN_Phy47_76x72x24_baltic_128.bin',
(PID.TID 0000.0001) > OBWptrFile(68)='OBW_Phy47_76x72x24_baltic_128.bin',
(PID.TID 0000.0001) > OBNptrFile(69)='OBN_Phy48_76x72x24_baltic_128.bin',
(PID.TID 0000.0001) > OBWptrFile(69)='OBW_Phy48_76x72x24_baltic_128.bin',
(PID.TID 0000.0001) > OBNptrFile(70)='OBN_Phy49_76x72x24_baltic_128.bin',
(PID.TID 0000.0001) > OBWptrFile(70)='OBW_Phy49_76x72x24_baltic_128.bin',
(PID.TID 0000.0001) > OBNptrFile(71)='OBN_Phy50_76x72x24_baltic_128.bin',
(PID.TID 0000.0001) > OBWptrFile(71)='OBW_Phy50_76x72x24_baltic_128.bin',
(PID.TID 0000.0001) > OBNptrFile(72)='OBN_Phy51_76x72x24_baltic_128.bin',
(PID.TID 0000.0001) > OBWptrFile(72)='OBW_Phy51_76x72x24_baltic_128.bin',
(PID.TID 0000.0001) > OBNptrFile(73)='OBN_Phy52_76x72x24_baltic_128.bin',
(PID.TID 0000.0001) > OBWptrFile(73)='OBW_Phy52_76x72x24_baltic_128.bin',
(PID.TID 0000.0001) > OBNptrFile(74)='OBN_Phy53_76x72x24_baltic_128.bin',
(PID.TID 0000.0001) > OBWptrFile(74)='OBW_Phy53_76x72x24_baltic_128.bin',
(PID.TID 0000.0001) > OBNptrFile(75)='OBN_Phy54_76x72x24_baltic_128.bin',
(PID.TID 0000.0001) > OBWptrFile(75)='OBW_Phy54_76x72x24_baltic_128.bin',
(PID.TID 0000.0001) > OBNptrFile(76)='OBN_Phy55_76x72x24_baltic_128.bin',
(PID.TID 0000.0001) > OBWptrFile(76)='OBW_Phy55_76x72x24_baltic_128.bin',
(PID.TID 0000.0001) > OBNptrFile(77)='OBN_Phy56_76x72x24_baltic_128.bin',
(PID.TID 0000.0001) > OBWptrFile(77)='OBW_Phy56_76x72x24_baltic_128.bin',
(PID.TID 0000.0001) > OBNptrFile(78)='OBN_Phy57_76x72x24_baltic_128.bin',
(PID.TID 0000.0001) > OBWptrFile(78)='OBW_Phy57_76x72x24_baltic_128.bin',
(PID.TID 0000.0001) > OBNptrFile(79)='OBN_Phy58_76x72x24_baltic_128.bin',
(PID.TID 0000.0001) > OBWptrFile(79)='OBW_Phy58_76x72x24_baltic_128.bin',
(PID.TID 0000.0001) > OBNptrFile(80)='OBN_Phy59_76x72x24_baltic_128.bin',
(PID.TID 0000.0001) > OBWptrFile(80)='OBW_Phy59_76x72x24_baltic_128.bin',
(PID.TID 0000.0001) > OBNptrFile(81)='OBN_Phy60_76x72x24_baltic_128.bin',
(PID.TID 0000.0001) > OBWptrFile(81)='OBW_Phy60_76x72x24_baltic_128.bin',
(PID.TID 0000.0001) > OBNptrFile(82)='OBN_Phy61_76x72x24_baltic_128.bin',
(PID.TID 0000.0001) > OBWptrFile(82)='OBW_Phy61_76x72x24_baltic_128.bin',
(PID.TID 0000.0001) > OBNptrFile(83)='OBN_Phy62_76x72x24_baltic_128.bin',
(PID.TID 0000.0001) > OBWptrFile(83)='OBW_Phy62_76x72x24_baltic_128.bin',
(PID.TID 0000.0001) > OBNptrFile(84)='OBN_Phy63_76x72x24_baltic_128.bin',
(PID.TID 0000.0001) > OBWptrFile(84)='OBW_Phy63_76x72x24_baltic_128.bin',
(PID.TID 0000.0001) > OBNptrFile(85)='OBN_Phy64_76x72x24_baltic_128.bin',
(PID.TID 0000.0001) > OBWptrFile(85)='OBW_Phy64_76x72x24_baltic_128.bin',
(PID.TID 0000.0001) > OBNptrFile(86)='OBN_Phy65_76x72x24_baltic_128.bin',
(PID.TID 0000.0001) > OBWptrFile(86)='OBW_Phy65_76x72x24_baltic_128.bin',
(PID.TID 0000.0001) > OBNptrFile(87)='OBN_Phy66_76x72x24_baltic_128.bin',
(PID.TID 0000.0001) > OBWptrFile(87)='OBW_Phy66_76x72x24_baltic_128.bin',
(PID.TID 0000.0001) > OBNptrFile(88)='OBN_Phy67_76x72x24_baltic_128.bin',
(PID.TID 0000.0001) > OBWptrFile(88)='OBW_Phy67_76x72x24_baltic_128.bin',
(PID.TID 0000.0001) > OBNptrFile(89)='OBN_Phy68_76x72x24_baltic_128.bin',
(PID.TID 0000.0001) > OBWptrFile(89)='OBW_Phy68_76x72x24_baltic_128.bin',
(PID.TID 0000.0001) > OBNptrFile(90)='OBN_Phy69_76x72x24_baltic_128.bin',
(PID.TID 0000.0001) > OBWptrFile(90)='OBW_Phy69_76x72x24_baltic_128.bin',
(PID.TID 0000.0001) > OBNptrFile(91)='OBN_Phy70_76x72x24_baltic_128.bin',
(PID.TID 0000.0001) > OBWptrFile(91)='OBW_Phy70_76x72x24_baltic_128.bin',
(PID.TID 0000.0001) > OBNptrFile(92)='OBN_Phy71_76x72x24_baltic_128.bin',
(PID.TID 0000.0001) > OBWptrFile(92)='OBW_Phy71_76x72x24_baltic_128.bin',
(PID.TID 0000.0001) > OBNptrFile(93)='OBN_Phy72_76x72x24_baltic_128.bin',
(PID.TID 0000.0001) > OBWptrFile(93)='OBW_Phy72_76x72x24_baltic_128.bin',
(PID.TID 0000.0001) > OBNptrFile(94)='OBN_Phy73_76x72x24_baltic_128.bin',
(PID.TID 0000.0001) > OBWptrFile(94)='OBW_Phy73_76x72x24_baltic_128.bin',
(PID.TID 0000.0001) > OBNptrFile(95)='OBN_Phy74_76x72x24_baltic_128.bin',
(PID.TID 0000.0001) > OBWptrFile(95)='OBW_Phy74_76x72x24_baltic_128.bin',
(PID.TID 0000.0001) > OBNptrFile(96)='OBN_Phy75_76x72x24_baltic_128.bin',
(PID.TID 0000.0001) > OBWptrFile(96)='OBW_Phy75_76x72x24_baltic_128.bin',
(PID.TID 0000.0001) > OBNptrFile(97)='OBN_Phy76_76x72x24_baltic_128.bin',
(PID.TID 0000.0001) > OBWptrFile(97)='OBW_Phy76_76x72x24_baltic_128.bin',
(PID.TID 0000.0001) > OBNptrFile(98)='OBN_Phy77_76x72x24_baltic_128.bin',
(PID.TID 0000.0001) > OBWptrFile(98)='OBW_Phy77_76x72x24_baltic_128.bin',
(PID.TID 0000.0001) > OBNptrFile(99)='OBN_Phy78_76x72x24_baltic_128.bin',
(PID.TID 0000.0001) > OBWptrFile(99)='OBW_Phy78_76x72x24_baltic_128.bin',
(PID.TID 0000.0001) >#
(PID.TID 0000.0001) > /
(PID.TID 0000.0001) >
(PID.TID 0000.0001) ># *****************************************
(PID.TID 0000.0001) ># Orlanski Boundary Condition Parameters.
(PID.TID 0000.0001) ># *****************************************
(PID.TID 0000.0001) ># &OBCS_PARM02
(PID.TID 0000.0001) ># cvelTimeScale = 2000.,
(PID.TID 0000.0001) ># /
(PID.TID 0000.0001) >
(PID.TID 0000.0001) ># *****************************************
(PID.TID 0000.0001) ># Sponge Layer Parameters.
(PID.TID 0000.0001) ># *****************************************
(PID.TID 0000.0001) ># &OBCS_PARM03
(PID.TID 0000.0001) ># Urelaxobcsinner=7776000.E0,
(PID.TID 0000.0001) ># Urelaxobcsbound=2592000.E0,
(PID.TID 0000.0001) ># Vrelaxobcsinner=7776000.E0,
(PID.TID 0000.0001) ># Vrelaxobcsbound=2592000.E0,
(PID.TID 0000.0001) ># spongeThickness=10,
(PID.TID 0000.0001) ># /
(PID.TID 0000.0001) 
(PID.TID 0000.0001)  OBCS_READPARMS: finished reading data.obcs
(PID.TID 0000.0001)  OB_indexUnset = /* unset OB index value (i.e. no OB) */
(PID.TID 0000.0001)                       0
(PID.TID 0000.0001)     ;
(PID.TID 0000.0001)  Northern OB global indices : OB_Jnorth =
(PID.TID 0000.0001)    76 @       72                            /* I =  1: 76 */
(PID.TID 0000.0001)  Southern OB global indices : OB_Jsouth =
(PID.TID 0000.0001)    76 @        0                            /* I =  1: 76 */
(PID.TID 0000.0001)  Eastern  OB global indices : OB_Ieast =
(PID.TID 0000.0001)    72 @        0                            /* J =  1: 72 */
(PID.TID 0000.0001)  Western  OB global indices : OB_Iwest =
(PID.TID 0000.0001)    72 @        1                            /* J =  1: 72 */
(PID.TID 0000.0001) 
(PID.TID 0000.0001)  PTRACERS_READPARMS: opening data.ptracers
(PID.TID 0000.0001)  OPEN_COPY_DATA_FILE: opening file data.ptracers
(PID.TID 0000.0001) // =======================================================
(PID.TID 0000.0001) // Parameter file "data.ptracers"
(PID.TID 0000.0001) // =======================================================
(PID.TID 0000.0001) > &PTRACERS_PARM01
(PID.TID 0000.0001) > PTRACERS_numInUse=99,
(PID.TID 0000.0001) ># 366 days == 19930101 060000
(PID.TID 0000.0001) > PTRACERS_Iter0= 26352,
(PID.TID 0000.0001) ># tracer 1 - phosphate
(PID.TID 0000.0001) > PTRACERS_names(1)='PO4',
(PID.TID 0000.0001) > PTRACERS_units(1)='mmol P/m^3',
(PID.TID 0000.0001) > PTRACERS_advScheme(1)=33,
(PID.TID 0000.0001) > PTRACERS_diffKh(1)=0.E3,
(PID.TID 0000.0001) > PTRACERS_diffKr(1)=1.E-6,
(PID.TID 0000.0001) > PTRACERS_useKPP(1)=.TRUE. ,
(PID.TID 0000.0001) ># tracer 2 - nitrate
(PID.TID 0000.0001) > PTRACERS_names(2)='NO3',
(PID.TID 0000.0001) > PTRACERS_units(2)='mmol N/m^3',
(PID.TID 0000.0001) > PTRACERS_advScheme(2)=33,
(PID.TID 0000.0001) > PTRACERS_diffKh(2)=0.E3,
(PID.TID 0000.0001) > PTRACERS_diffKr(2)=1.E-6,
(PID.TID 0000.0001) > PTRACERS_useKPP(2)=.TRUE. ,
(PID.TID 0000.0001) ># tracer 3 - dissolved iron
(PID.TID 0000.0001) > PTRACERS_names(3)='FeT',
(PID.TID 0000.0001) > PTRACERS_units(3)='mmol Fe/m^3',
(PID.TID 0000.0001) > PTRACERS_advScheme(3)=33,
(PID.TID 0000.0001) > PTRACERS_diffKh(3)=0.E3,
(PID.TID 0000.0001) > PTRACERS_diffKr(3)=1.E-6,
(PID.TID 0000.0001) > PTRACERS_useKPP(3)=.TRUE. ,
(PID.TID 0000.0001) ># tracer 4 - silicic acid
(PID.TID 0000.0001) > PTRACERS_names(4)='SiO2',
(PID.TID 0000.0001) > PTRACERS_units(4)='mmol Si/m^3',
(PID.TID 0000.0001) > PTRACERS_advScheme(4)=33,
(PID.TID 0000.0001) > PTRACERS_diffKh(4)=0.E3,
(PID.TID 0000.0001) > PTRACERS_diffKr(4)=1.E-6,
(PID.TID 0000.0001) > PTRACERS_useKPP(4)=.TRUE. ,
(PID.TID 0000.0001) ># tracer 5 - DOP
(PID.TID 0000.0001) > PTRACERS_names(5)='DOP',
(PID.TID 0000.0001) > PTRACERS_units(5)='mmol P/m^3',
(PID.TID 0000.0001) > PTRACERS_advScheme(5)=33,
(PID.TID 0000.0001) > PTRACERS_diffKh(5)=0.E3,
(PID.TID 0000.0001) > PTRACERS_diffKr(5)=1.E-6,
(PID.TID 0000.0001) > PTRACERS_useKPP(5)=.TRUE.  ,
(PID.TID 0000.0001) ># tracer 6 - DON
(PID.TID 0000.0001) > PTRACERS_names(6)='DON',
(PID.TID 0000.0001) > PTRACERS_units(6)='mmol N/m^3',
(PID.TID 0000.0001) > PTRACERS_advScheme(6)=33,
(PID.TID 0000.0001) > PTRACERS_diffKh(6)=0.E3,
(PID.TID 0000.0001) > PTRACERS_diffKr(6)=1.E-6,
(PID.TID 0000.0001) > PTRACERS_useKPP(6)=.TRUE.  ,
(PID.TID 0000.0001) ># tracer 7 - DOFe
(PID.TID 0000.0001) > PTRACERS_names(7)='DOFe',
(PID.TID 0000.0001) > PTRACERS_units(7)='mmol Fe/m^3',
(PID.TID 0000.0001) > PTRACERS_advScheme(7)=33,
(PID.TID 0000.0001) > PTRACERS_diffKh(7)=0.E3,
(PID.TID 0000.0001) > PTRACERS_diffKr(7)=1.E-6,
(PID.TID 0000.0001) > PTRACERS_useKPP(7)=.TRUE.  ,
(PID.TID 0000.0001) ># tracer 8 - ZOO1P
(PID.TID 0000.0001) > PTRACERS_names(8)='ZOO1P',
(PID.TID 0000.0001) > PTRACERS_units(8)='mmol P/m^3',
(PID.TID 0000.0001) > PTRACERS_advScheme(8)=33,
(PID.TID 0000.0001) > PTRACERS_diffKh(8)=0.E3,
(PID.TID 0000.0001) > PTRACERS_diffKr(8)=1.E-6,
(PID.TID 0000.0001) > PTRACERS_useKPP(8)=.TRUE.  ,
(PID.TID 0000.0001) ># tracer 9 - ZOO1N
(PID.TID 0000.0001) > PTRACERS_names(9)='ZOO1N',
(PID.TID 0000.0001) > PTRACERS_units(9)='mmol N/m^3'
(PID.TID 0000.0001) > PTRACERS_advScheme(9)=33,
(PID.TID 0000.0001) > PTRACERS_diffKh(9)=0.E3,
(PID.TID 0000.0001) > PTRACERS_diffKr(9)=1.E-6,
(PID.TID 0000.0001) > PTRACERS_useKPP(9)=.TRUE.  ,
(PID.TID 0000.0001) ># tracer 10 - ZOO1Fe
(PID.TID 0000.0001) > PTRACERS_names(10)='ZOO1Fe',
(PID.TID 0000.0001) > PTRACERS_units(10)='mmol Fe/m^3'
(PID.TID 0000.0001) > PTRACERS_advScheme(10)=33,
(PID.TID 0000.0001) > PTRACERS_diffKh(10)=0.E3,
(PID.TID 0000.0001) > PTRACERS_diffKr(10)=1.E-6,
(PID.TID 0000.0001) > PTRACERS_useKPP(10)=.TRUE.  ,
(PID.TID 0000.0001) ># tracer 11 - ZOO1Si
(PID.TID 0000.0001) > PTRACERS_names(11)='ZOO1Si',
(PID.TID 0000.0001) > PTRACERS_units(11)='mmol Si/m^3'
(PID.TID 0000.0001) > PTRACERS_advScheme(11)=33,
(PID.TID 0000.0001) > PTRACERS_diffKh(11)=0.E3,
(PID.TID 0000.0001) > PTRACERS_diffKr(11)=1.E-6,
(PID.TID 0000.0001) > PTRACERS_useKPP(11)=.TRUE.  ,
(PID.TID 0000.0001) ># tracer 12 - ZOO2P
(PID.TID 0000.0001) > PTRACERS_names(12)='ZOO2P',
(PID.TID 0000.0001) > PTRACERS_units(12)='mmol P/m^3',
(PID.TID 0000.0001) > PTRACERS_advScheme(12)=33,
(PID.TID 0000.0001) > PTRACERS_diffKh(12)=0.E3,
(PID.TID 0000.0001) > PTRACERS_diffKr(12)=1.E-6,
(PID.TID 0000.0001) > PTRACERS_useKPP(12)=.TRUE.  ,
(PID.TID 0000.0001) ># tracer 13 - ZOO2N
(PID.TID 0000.0001) > PTRACERS_names(13)='ZOO2N',
(PID.TID 0000.0001) > PTRACERS_units(13)='mmol N/m^3'
(PID.TID 0000.0001) > PTRACERS_advScheme(13)=33,
(PID.TID 0000.0001) > PTRACERS_diffKh(13)=0.E3,
(PID.TID 0000.0001) > PTRACERS_diffKr(13)=1.E-6,
(PID.TID 0000.0001) > PTRACERS_useKPP(13)=.TRUE.  ,
(PID.TID 0000.0001) ># tracer 14 - ZOO2Fe
(PID.TID 0000.0001) > PTRACERS_names(14)='ZOO2Fe',
(PID.TID 0000.0001) > PTRACERS_units(14)='mmol Fe/m^3'
(PID.TID 0000.0001) > PTRACERS_advScheme(14)=33,
(PID.TID 0000.0001) > PTRACERS_diffKh(14)=0.E3,
(PID.TID 0000.0001) > PTRACERS_diffKr(14)=1.E-6,
(PID.TID 0000.0001) > PTRACERS_useKPP(14)=.TRUE.  ,
(PID.TID 0000.0001) ># tracer 15 - ZOO2Si
(PID.TID 0000.0001) > PTRACERS_names(15)='ZOO2Si',
(PID.TID 0000.0001) > PTRACERS_units(15)='mmol Si/m^3'
(PID.TID 0000.0001) > PTRACERS_advScheme(15)=33,
(PID.TID 0000.0001) > PTRACERS_diffKh(15)=0.E3,
(PID.TID 0000.0001) > PTRACERS_diffKr(15)=1.E-6,
(PID.TID 0000.0001) > PTRACERS_useKPP(15)=.TRUE.  ,
(PID.TID 0000.0001) ># tracer 16 - POP
(PID.TID 0000.0001) > PTRACERS_names(16)='POP',
(PID.TID 0000.0001) > PTRACERS_units(16)='mmol P/m^3',
(PID.TID 0000.0001) > PTRACERS_advScheme(16)=33,
(PID.TID 0000.0001) > PTRACERS_diffKh(16)=0.E3,
(PID.TID 0000.0001) > PTRACERS_diffKr(16)=1.E-6,
(PID.TID 0000.0001) > PTRACERS_useKPP(16)=.TRUE.  ,
(PID.TID 0000.0001) ># tracer 17 - PON
(PID.TID 0000.0001) > PTRACERS_names(17)='PON',
(PID.TID 0000.0001) > PTRACERS_units(17)='mmol N/m^3',
(PID.TID 0000.0001) > PTRACERS_advScheme(17)=33,
(PID.TID 0000.0001) > PTRACERS_diffKh(17)=0.E3,
(PID.TID 0000.0001) > PTRACERS_diffKr(17)=1.E-6,
(PID.TID 0000.0001) > PTRACERS_useKPP(17)=.TRUE.  ,
(PID.TID 0000.0001) ># tracer 18 - POFe
(PID.TID 0000.0001) > PTRACERS_names(18)='POFe',
(PID.TID 0000.0001) > PTRACERS_units(18)='mmol Fe/m^3'
(PID.TID 0000.0001) > PTRACERS_advScheme(18)=33,
(PID.TID 0000.0001) > PTRACERS_diffKh(18)=0.E3,
(PID.TID 0000.0001) > PTRACERS_diffKr(18)=1.E-6,
(PID.TID 0000.0001) > PTRACERS_useKPP(18)=.TRUE.  ,
(PID.TID 0000.0001) ># tracer 19 - POSi
(PID.TID 0000.0001) > PTRACERS_names(19)='POSi',
(PID.TID 0000.0001) > PTRACERS_units(19)='mmol Si/m^3'
(PID.TID 0000.0001) > PTRACERS_advScheme(19)=33,
(PID.TID 0000.0001) > PTRACERS_diffKh(19)=0.E3,
(PID.TID 0000.0001) > PTRACERS_diffKr(19)=1.E-6,
(PID.TID 0000.0001) > PTRACERS_useKPP(19)=.TRUE.  ,
(PID.TID 0000.0001) ># tracer 20 - NH4
(PID.TID 0000.0001) > PTRACERS_names(20)='NH4',
(PID.TID 0000.0001) > PTRACERS_units(20)='mmol N/m^3'
(PID.TID 0000.0001) > PTRACERS_advScheme(20)=33,
(PID.TID 0000.0001) > PTRACERS_diffKh(20)=0.E3,
(PID.TID 0000.0001) > PTRACERS_diffKr(20)=1.E-6,
(PID.TID 0000.0001) > PTRACERS_useKPP(20)=.TRUE.  ,
(PID.TID 0000.0001) ># tracer 21 - NO2
(PID.TID 0000.0001) > PTRACERS_names(21)='NO2',
(PID.TID 0000.0001) > PTRACERS_units(21)='mmol N/m^3'
(PID.TID 0000.0001) > PTRACERS_advScheme(21)=33,
(PID.TID 0000.0001) > PTRACERS_diffKh(21)=0.E3,
(PID.TID 0000.0001) > PTRACERS_diffKr(21)=1.E-6,
(PID.TID 0000.0001) > PTRACERS_useKPP(21)=.TRUE.  ,
(PID.TID 0000.0001) ># tracer 22 - PHYT01
(PID.TID 0000.0001) > PTRACERS_names(22)='Phy01',
(PID.TID 0000.0001) > PTRACERS_units(22)='mmol P/m^3'
(PID.TID 0000.0001) > PTRACERS_advScheme(22)=33,
(PID.TID 0000.0001) > PTRACERS_diffKh(22)=0.E3,
(PID.TID 0000.0001) > PTRACERS_diffKr(22)=1.E-6,
(PID.TID 0000.0001) > PTRACERS_useKPP(22)=.TRUE.  ,
(PID.TID 0000.0001) ># tracer 23 - PHYT02
(PID.TID 0000.0001) > PTRACERS_names(23)='Phy02',
(PID.TID 0000.0001) > PTRACERS_units(23)='mmol P/m^3'
(PID.TID 0000.0001) > PTRACERS_advScheme(23)=33,
(PID.TID 0000.0001) > PTRACERS_diffKh(23)=0.E3,
(PID.TID 0000.0001) > PTRACERS_diffKr(23)=1.E-6,
(PID.TID 0000.0001) > PTRACERS_useKPP(23)=.TRUE.  ,
(PID.TID 0000.0001) ># tracer 24 - PHYT03
(PID.TID 0000.0001) > PTRACERS_names(24)='Phy03',
(PID.TID 0000.0001) > PTRACERS_units(24)='mmol P/m^3'
(PID.TID 0000.0001) > PTRACERS_advScheme(24)=33,
(PID.TID 0000.0001) > PTRACERS_diffKh(24)=0.E3,
(PID.TID 0000.0001) > PTRACERS_diffKr(24)=1.E-6,
(PID.TID 0000.0001) > PTRACERS_useKPP(24)=.TRUE.  ,
(PID.TID 0000.0001) ># tracer 25 - PHYT04
(PID.TID 0000.0001) > PTRACERS_names(25)='Phy04',
(PID.TID 0000.0001) > PTRACERS_units(25)='mmol P/m^3'
(PID.TID 0000.0001) > PTRACERS_advScheme(25)=33,
(PID.TID 0000.0001) > PTRACERS_diffKh(25)=0.E3,
(PID.TID 0000.0001) > PTRACERS_diffKr(25)=1.E-6,
(PID.TID 0000.0001) > PTRACERS_useKPP(25)=.TRUE.  ,
(PID.TID 0000.0001) ># tracer 26 - PHYT05
(PID.TID 0000.0001) > PTRACERS_names(26)='Phy05',
(PID.TID 0000.0001) > PTRACERS_units(26)='mmol P/m^3'
(PID.TID 0000.0001) > PTRACERS_advScheme(26)=33,
(PID.TID 0000.0001) > PTRACERS_diffKh(26)=0.E3,
(PID.TID 0000.0001) > PTRACERS_diffKr(26)=1.E-6,
(PID.TID 0000.0001) > PTRACERS_useKPP(26)=.TRUE.  ,
(PID.TID 0000.0001) ># tracer 27 - PHYT06
(PID.TID 0000.0001) > PTRACERS_names(27)='Phy06',
(PID.TID 0000.0001) > PTRACERS_units(27)='mmol P/m^3'
(PID.TID 0000.0001) > PTRACERS_advScheme(27)=33,
(PID.TID 0000.0001) > PTRACERS_diffKh(27)=0.E3,
(PID.TID 0000.0001) > PTRACERS_diffKr(27)=1.E-6,
(PID.TID 0000.0001) > PTRACERS_useKPP(27)=.TRUE.  ,
(PID.TID 0000.0001) ># tracer 28 - PHYT07
(PID.TID 0000.0001) > PTRACERS_names(28)='Phy07',
(PID.TID 0000.0001) > PTRACERS_units(28)='mmol P/m^3'
(PID.TID 0000.0001) > PTRACERS_advScheme(28)=33,
(PID.TID 0000.0001) > PTRACERS_diffKh(28)=0.E3,
(PID.TID 0000.0001) > PTRACERS_diffKr(28)=1.E-6,
(PID.TID 0000.0001) > PTRACERS_useKPP(28)=.TRUE.  ,
(PID.TID 0000.0001) ># tracer 29 - PHYT08
(PID.TID 0000.0001) > PTRACERS_names(29)='Phy08',
(PID.TID 0000.0001) > PTRACERS_units(29)='mmol P/m^3'
(PID.TID 0000.0001) > PTRACERS_advScheme(29)=33,
(PID.TID 0000.0001) > PTRACERS_diffKh(29)=0.E3,
(PID.TID 0000.0001) > PTRACERS_diffKr(29)=1.E-6,
(PID.TID 0000.0001) > PTRACERS_useKPP(29)=.TRUE.  ,
(PID.TID 0000.0001) ># tracer 30 - PHYT09
(PID.TID 0000.0001) > PTRACERS_names(30)='Phy09',
(PID.TID 0000.0001) > PTRACERS_units(30)='mmol P/m^3'
(PID.TID 0000.0001) > PTRACERS_advScheme(30)=33,
(PID.TID 0000.0001) > PTRACERS_diffKh(30)=0.E3,
(PID.TID 0000.0001) > PTRACERS_diffKr(30)=1.E-6,
(PID.TID 0000.0001) > PTRACERS_useKPP(30)=.TRUE.  ,
(PID.TID 0000.0001) ># tracer 31 - PHYT10
(PID.TID 0000.0001) > PTRACERS_names(31)='Phy10',
(PID.TID 0000.0001) > PTRACERS_units(31)='mmol P/m^3'
(PID.TID 0000.0001) > PTRACERS_advScheme(31)=33,
(PID.TID 0000.0001) > PTRACERS_diffKh(31)=0.E3,
(PID.TID 0000.0001) > PTRACERS_diffKr(31)=1.E-6,
(PID.TID 0000.0001) > PTRACERS_useKPP(31)=.TRUE.  ,
(PID.TID 0000.0001) ># tracer 32 - PHYT11
(PID.TID 0000.0001) > PTRACERS_names(32)='Phy11',
(PID.TID 0000.0001) > PTRACERS_units(32)='mmol P/m^3'
(PID.TID 0000.0001) > PTRACERS_advScheme(32)=33,
(PID.TID 0000.0001) > PTRACERS_diffKh(32)=0.E3,
(PID.TID 0000.0001) > PTRACERS_diffKr(32)=1.E-6,
(PID.TID 0000.0001) > PTRACERS_useKPP(32)=.TRUE.  ,
(PID.TID 0000.0001) ># tracer 33 - PHYT12
(PID.TID 0000.0001) > PTRACERS_names(33)='Phy12',
(PID.TID 0000.0001) > PTRACERS_units(33)='mmol P/m^3'
(PID.TID 0000.0001) > PTRACERS_advScheme(33)=33,
(PID.TID 0000.0001) > PTRACERS_diffKh(33)=0.E3,
(PID.TID 0000.0001) > PTRACERS_diffKr(33)=1.E-6,
(PID.TID 0000.0001) > PTRACERS_useKPP(33)=.TRUE.  ,
(PID.TID 0000.0001) ># tracer 34 - PHYT13
(PID.TID 0000.0001) > PTRACERS_names(34)='Phy13',
(PID.TID 0000.0001) > PTRACERS_units(34)='mmol P/m^3'
(PID.TID 0000.0001) > PTRACERS_advScheme(34)=33,
(PID.TID 0000.0001) > PTRACERS_diffKh(34)=0.E3,
(PID.TID 0000.0001) > PTRACERS_diffKr(34)=1.E-6,
(PID.TID 0000.0001) > PTRACERS_useKPP(34)=.TRUE.  ,
(PID.TID 0000.0001) ># tracer 35 - PHYT14
(PID.TID 0000.0001) > PTRACERS_names(35)='Phy14',
(PID.TID 0000.0001) > PTRACERS_units(35)='mmol P/m^3'
(PID.TID 0000.0001) > PTRACERS_advScheme(35)=33,
(PID.TID 0000.0001) > PTRACERS_diffKh(35)=0.E3,
(PID.TID 0000.0001) > PTRACERS_diffKr(35)=1.E-6,
(PID.TID 0000.0001) > PTRACERS_useKPP(35)=.TRUE.  ,
(PID.TID 0000.0001) ># tracer 36 - PHYT15
(PID.TID 0000.0001) > PTRACERS_names(36)='Phy15',
(PID.TID 0000.0001) > PTRACERS_units(36)='mmol P/m^3'
(PID.TID 0000.0001) > PTRACERS_advScheme(36)=33,
(PID.TID 0000.0001) > PTRACERS_diffKh(36)=0.E3,
(PID.TID 0000.0001) > PTRACERS_diffKr(36)=1.E-6,
(PID.TID 0000.0001) > PTRACERS_useKPP(36)=.TRUE.  ,
(PID.TID 0000.0001) ># tracer 37 - PHYT16
(PID.TID 0000.0001) > PTRACERS_names(37)='Phy16',
(PID.TID 0000.0001) > PTRACERS_units(37)='mmol P/m^3'
(PID.TID 0000.0001) > PTRACERS_advScheme(37)=33,
(PID.TID 0000.0001) > PTRACERS_diffKh(37)=0.E3,
(PID.TID 0000.0001) > PTRACERS_diffKr(37)=1.E-6,
(PID.TID 0000.0001) > PTRACERS_useKPP(37)=.TRUE.  ,
(PID.TID 0000.0001) ># tracer 38 - PHYT17
(PID.TID 0000.0001) > PTRACERS_names(38)='Phy17',
(PID.TID 0000.0001) > PTRACERS_units(38)='mmol P/m^3'
(PID.TID 0000.0001) > PTRACERS_advScheme(38)=33,
(PID.TID 0000.0001) > PTRACERS_diffKh(38)=0.E3,
(PID.TID 0000.0001) > PTRACERS_diffKr(38)=1.E-6,
(PID.TID 0000.0001) > PTRACERS_useKPP(38)=.TRUE.  ,
(PID.TID 0000.0001) ># tracer 39 - PHYT18
(PID.TID 0000.0001) > PTRACERS_names(39)='Phy18',
(PID.TID 0000.0001) > PTRACERS_units(39)='mmol P/m^3'
(PID.TID 0000.0001) > PTRACERS_advScheme(39)=33,
(PID.TID 0000.0001) > PTRACERS_diffKh(39)=0.E3,
(PID.TID 0000.0001) > PTRACERS_diffKr(39)=1.E-6,
(PID.TID 0000.0001) > PTRACERS_useKPP(39)=.TRUE.  ,
(PID.TID 0000.0001) ># tracer 40 - PHYT19
(PID.TID 0000.0001) > PTRACERS_names(40)='Phy19',
(PID.TID 0000.0001) > PTRACERS_units(40)='mmol P/m^3'
(PID.TID 0000.0001) > PTRACERS_advScheme(40)=33,
(PID.TID 0000.0001) > PTRACERS_diffKh(40)=0.E3,
(PID.TID 0000.0001) > PTRACERS_diffKr(40)=1.E-6,
(PID.TID 0000.0001) > PTRACERS_useKPP(40)=.TRUE.  ,
(PID.TID 0000.0001) ># tracer 41 - PHYT20
(PID.TID 0000.0001) > PTRACERS_names(41)='Phy20',
(PID.TID 0000.0001) > PTRACERS_units(41)='mmol P/m^3'
(PID.TID 0000.0001) > PTRACERS_advScheme(41)=33,
(PID.TID 0000.0001) > PTRACERS_diffKh(41)=0.E3,
(PID.TID 0000.0001) > PTRACERS_diffKr(41)=1.E-6,
(PID.TID 0000.0001) > PTRACERS_useKPP(41)=.TRUE.  ,
(PID.TID 0000.0001) ># tracer 42 - PHYT21
(PID.TID 0000.0001) > PTRACERS_names(42)='Phy21',
(PID.TID 0000.0001) > PTRACERS_units(42)='mmol P/m^3'
(PID.TID 0000.0001) > PTRACERS_advScheme(42)=33,
(PID.TID 0000.0001) > PTRACERS_diffKh(42)=0.E3,
(PID.TID 0000.0001) > PTRACERS_diffKr(42)=1.E-6,
(PID.TID 0000.0001) > PTRACERS_useKPP(42)=.TRUE.  ,
(PID.TID 0000.0001) ># tracer 43 - PHYT22
(PID.TID 0000.0001) > PTRACERS_names(43)='Phy22',
(PID.TID 0000.0001) > PTRACERS_units(43)='mmol P/m^3'
(PID.TID 0000.0001) > PTRACERS_advScheme(43)=33,
(PID.TID 0000.0001) > PTRACERS_diffKh(43)=0.E3,
(PID.TID 0000.0001) > PTRACERS_diffKr(43)=1.E-6,
(PID.TID 0000.0001) > PTRACERS_useKPP(43)=.TRUE.  ,
(PID.TID 0000.0001) ># tracer 44 - PHYT23
(PID.TID 0000.0001) > PTRACERS_names(44)='Phy23',
(PID.TID 0000.0001) > PTRACERS_units(44)='mmol P/m^3'
(PID.TID 0000.0001) > PTRACERS_advScheme(44)=33,
(PID.TID 0000.0001) > PTRACERS_diffKh(44)=0.E3,
(PID.TID 0000.0001) > PTRACERS_diffKr(44)=1.E-6,
(PID.TID 0000.0001) > PTRACERS_useKPP(44)=.TRUE.  ,
(PID.TID 0000.0001) ># tracer 45 - PHYT24
(PID.TID 0000.0001) > PTRACERS_names(45)='Phy24',
(PID.TID 0000.0001) > PTRACERS_units(45)='mmol P/m^3'
(PID.TID 0000.0001) > PTRACERS_advScheme(45)=33,
(PID.TID 0000.0001) > PTRACERS_diffKh(45)=0.E3,
(PID.TID 0000.0001) > PTRACERS_diffKr(45)=1.E-6,
(PID.TID 0000.0001) > PTRACERS_useKPP(45)=.TRUE.  ,
(PID.TID 0000.0001) ># tracer 46 - PHYT25
(PID.TID 0000.0001) > PTRACERS_names(46)='Phy25',
(PID.TID 0000.0001) > PTRACERS_units(46)='mmol P/m^3'
(PID.TID 0000.0001) > PTRACERS_advScheme(46)=33,
(PID.TID 0000.0001) > PTRACERS_diffKh(46)=0.E3,
(PID.TID 0000.0001) > PTRACERS_diffKr(46)=1.E-6,
(PID.TID 0000.0001) > PTRACERS_useKPP(46)=.TRUE.  ,
(PID.TID 0000.0001) ># tracer 47 - PHYT26
(PID.TID 0000.0001) > PTRACERS_names(47)='Phy26',
(PID.TID 0000.0001) > PTRACERS_units(47)='mmol P/m^3'
(PID.TID 0000.0001) > PTRACERS_advScheme(47)=33,
(PID.TID 0000.0001) > PTRACERS_diffKh(47)=0.E3,
(PID.TID 0000.0001) > PTRACERS_diffKr(47)=1.E-6,
(PID.TID 0000.0001) > PTRACERS_useKPP(47)=.TRUE.  ,
(PID.TID 0000.0001) ># tracer 48 - PHYT27
(PID.TID 0000.0001) > PTRACERS_names(48)='Phy27',
(PID.TID 0000.0001) > PTRACERS_units(48)='mmol P/m^3'
(PID.TID 0000.0001) > PTRACERS_advScheme(48)=33,
(PID.TID 0000.0001) > PTRACERS_diffKh(48)=0.E3,
(PID.TID 0000.0001) > PTRACERS_diffKr(48)=1.E-6,
(PID.TID 0000.0001) > PTRACERS_useKPP(48)=.TRUE.  ,
(PID.TID 0000.0001) ># tracer 49 - PHYT28
(PID.TID 0000.0001) > PTRACERS_names(49)='Phy28',
(PID.TID 0000.0001) > PTRACERS_units(49)='mmol P/m^3'
(PID.TID 0000.0001) > PTRACERS_advScheme(49)=33,
(PID.TID 0000.0001) > PTRACERS_diffKh(49)=0.E3,
(PID.TID 0000.0001) > PTRACERS_diffKr(49)=1.E-6,
(PID.TID 0000.0001) > PTRACERS_useKPP(49)=.TRUE.  ,
(PID.TID 0000.0001) ># tracer 50 - PHYT29
(PID.TID 0000.0001) > PTRACERS_names(50)='Phy29',
(PID.TID 0000.0001) > PTRACERS_units(50)='mmol P/m^3'
(PID.TID 0000.0001) > PTRACERS_advScheme(50)=33,
(PID.TID 0000.0001) > PTRACERS_diffKh(50)=0.E3,
(PID.TID 0000.0001) > PTRACERS_diffKr(50)=1.E-6,
(PID.TID 0000.0001) > PTRACERS_useKPP(50)=.TRUE.  ,
(PID.TID 0000.0001) ># tracer 51 - PHY30
(PID.TID 0000.0001) > PTRACERS_names(51)='Phy30',
(PID.TID 0000.0001) > PTRACERS_units(51)='mmol P/m^3'
(PID.TID 0000.0001) > PTRACERS_advScheme(51)=33,
(PID.TID 0000.0001) > PTRACERS_diffKh(51)=0.E3,
(PID.TID 0000.0001) > PTRACERS_diffKr(51)=1.E-6,
(PID.TID 0000.0001) > PTRACERS_useKPP(51)=.TRUE.  ,
(PID.TID 0000.0001) ># tracer 52 - PHY31
(PID.TID 0000.0001) > PTRACERS_names(52)='Phy31',
(PID.TID 0000.0001) > PTRACERS_units(52)='mmol P/m^3'
(PID.TID 0000.0001) > PTRACERS_advScheme(52)=33,
(PID.TID 0000.0001) > PTRACERS_diffKh(52)=0.E3,
(PID.TID 0000.0001) > PTRACERS_diffKr(52)=1.E-6,
(PID.TID 0000.0001) > PTRACERS_useKPP(52)=.TRUE.  ,
(PID.TID 0000.0001) ># tracer 53 - PHY32
(PID.TID 0000.0001) > PTRACERS_names(53)='Phy32',
(PID.TID 0000.0001) > PTRACERS_units(53)='mmol P/m^3'
(PID.TID 0000.0001) > PTRACERS_advScheme(53)=33,
(PID.TID 0000.0001) > PTRACERS_diffKh(53)=0.E3,
(PID.TID 0000.0001) > PTRACERS_diffKr(53)=1.E-6,
(PID.TID 0000.0001) > PTRACERS_useKPP(53)=.TRUE.  ,
(PID.TID 0000.0001) ># tracer 54 - PHY33
(PID.TID 0000.0001) > PTRACERS_names(54)='Phy33',
(PID.TID 0000.0001) > PTRACERS_units(54)='mmol P/m^3'
(PID.TID 0000.0001) > PTRACERS_advScheme(54)=33,
(PID.TID 0000.0001) > PTRACERS_diffKh(54)=0.E3,
(PID.TID 0000.0001) > PTRACERS_diffKr(54)=1.E-6,
(PID.TID 0000.0001) > PTRACERS_useKPP(54)=.TRUE.  ,
(PID.TID 0000.0001) ># tracer 55 - PHY34
(PID.TID 0000.0001) > PTRACERS_names(55)='Phy34',
(PID.TID 0000.0001) > PTRACERS_units(55)='mmol P/m^3'
(PID.TID 0000.0001) > PTRACERS_advScheme(55)=33,
(PID.TID 0000.0001) > PTRACERS_diffKh(55)=0.E3,
(PID.TID 0000.0001) > PTRACERS_diffKr(55)=1.E-6,
(PID.TID 0000.0001) > PTRACERS_useKPP(55)=.TRUE.  ,
(PID.TID 0000.0001) ># tracer 56 - PHY35
(PID.TID 0000.0001) > PTRACERS_names(56)='Phy35',
(PID.TID 0000.0001) > PTRACERS_units(56)='mmol P/m^3'
(PID.TID 0000.0001) > PTRACERS_advScheme(56)=33,
(PID.TID 0000.0001) > PTRACERS_diffKh(56)=0.E3,
(PID.TID 0000.0001) > PTRACERS_diffKr(56)=1.E-6,
(PID.TID 0000.0001) > PTRACERS_useKPP(56)=.TRUE.  ,
(PID.TID 0000.0001) ># tracer 57 - PHY36
(PID.TID 0000.0001) > PTRACERS_names(57)='Phy36',
(PID.TID 0000.0001) > PTRACERS_units(57)='mmol P/m^3'
(PID.TID 0000.0001) > PTRACERS_advScheme(57)=33,
(PID.TID 0000.0001) > PTRACERS_diffKh(57)=0.E3,
(PID.TID 0000.0001) > PTRACERS_diffKr(57)=1.E-6,
(PID.TID 0000.0001) > PTRACERS_useKPP(57)=.TRUE.  ,
(PID.TID 0000.0001) ># tracer 58 - PHY37
(PID.TID 0000.0001) > PTRACERS_names(58)='Phy37',
(PID.TID 0000.0001) > PTRACERS_units(58)='mmol P/m^3'
(PID.TID 0000.0001) > PTRACERS_advScheme(58)=33,
(PID.TID 0000.0001) > PTRACERS_diffKh(58)=0.E3,
(PID.TID 0000.0001) > PTRACERS_diffKr(58)=1.E-6,
(PID.TID 0000.0001) > PTRACERS_useKPP(58)=.TRUE.  ,
(PID.TID 0000.0001) ># tracer 59 - PHY38
(PID.TID 0000.0001) > PTRACERS_names(59)='Phy38',
(PID.TID 0000.0001) > PTRACERS_units(59)='mmol P/m^3'
(PID.TID 0000.0001) > PTRACERS_advScheme(59)=33,
(PID.TID 0000.0001) > PTRACERS_diffKh(59)=0.E3,
(PID.TID 0000.0001) > PTRACERS_diffKr(59)=1.E-6,
(PID.TID 0000.0001) > PTRACERS_useKPP(59)=.TRUE.  ,
(PID.TID 0000.0001) ># tracer 60 - PHY39
(PID.TID 0000.0001) > PTRACERS_names(60)='Phy39',
(PID.TID 0000.0001) > PTRACERS_units(60)='mmol P/m^3'
(PID.TID 0000.0001) > PTRACERS_advScheme(60)=33,
(PID.TID 0000.0001) > PTRACERS_diffKh(60)=0.E3,
(PID.TID 0000.0001) > PTRACERS_diffKr(60)=1.E-6,
(PID.TID 0000.0001) > PTRACERS_useKPP(60)=.TRUE.  ,
(PID.TID 0000.0001) ># tracer 61 - PHY40
(PID.TID 0000.0001) > PTRACERS_names(61)='Phy40',
(PID.TID 0000.0001) > PTRACERS_units(61)='mmol P/m^3'
(PID.TID 0000.0001) > PTRACERS_advScheme(61)=33,
(PID.TID 0000.0001) > PTRACERS_diffKh(61)=0.E3,
(PID.TID 0000.0001) > PTRACERS_diffKr(61)=1.E-6,
(PID.TID 0000.0001) > PTRACERS_useKPP(61)=.TRUE.  ,
(PID.TID 0000.0001) ># tracer 62 - PHY41
(PID.TID 0000.0001) > PTRACERS_names(62)='Phy41',
(PID.TID 0000.0001) > PTRACERS_units(62)='mmol P/m^3'
(PID.TID 0000.0001) > PTRACERS_advScheme(62)=33,
(PID.TID 0000.0001) > PTRACERS_diffKh(62)=0.E3,
(PID.TID 0000.0001) > PTRACERS_diffKr(62)=1.E-6,
(PID.TID 0000.0001) > PTRACERS_useKPP(62)=.TRUE.  ,
(PID.TID 0000.0001) ># tracer 63 - PHY42
(PID.TID 0000.0001) > PTRACERS_names(63)='Phy42',
(PID.TID 0000.0001) > PTRACERS_units(63)='mmol P/m^3'
(PID.TID 0000.0001) > PTRACERS_advScheme(63)=33,
(PID.TID 0000.0001) > PTRACERS_diffKh(63)=0.E3,
(PID.TID 0000.0001) > PTRACERS_diffKr(63)=1.E-6,
(PID.TID 0000.0001) > PTRACERS_useKPP(63)=.TRUE.  ,
(PID.TID 0000.0001) ># tracer 64 - PHY43
(PID.TID 0000.0001) > PTRACERS_names(64)='Phy43',
(PID.TID 0000.0001) > PTRACERS_units(64)='mmol P/m^3'
(PID.TID 0000.0001) > PTRACERS_advScheme(64)=33,
(PID.TID 0000.0001) > PTRACERS_diffKh(64)=0.E3,
(PID.TID 0000.0001) > PTRACERS_diffKr(64)=1.E-6,
(PID.TID 0000.0001) > PTRACERS_useKPP(64)=.TRUE.  ,
(PID.TID 0000.0001) ># tracer 65 - PHY44
(PID.TID 0000.0001) > PTRACERS_names(65)='Phy44',
(PID.TID 0000.0001) > PTRACERS_units(65)='mmol P/m^3'
(PID.TID 0000.0001) > PTRACERS_advScheme(65)=33,
(PID.TID 0000.0001) > PTRACERS_diffKh(65)=0.E3,
(PID.TID 0000.0001) > PTRACERS_diffKr(65)=1.E-6,
(PID.TID 0000.0001) > PTRACERS_useKPP(65)=.TRUE.  ,
(PID.TID 0000.0001) ># tracer 66 - PHY45
(PID.TID 0000.0001) > PTRACERS_names(66)='Phy45',
(PID.TID 0000.0001) > PTRACERS_units(66)='mmol P/m^3'
(PID.TID 0000.0001) > PTRACERS_advScheme(66)=33,
(PID.TID 0000.0001) > PTRACERS_diffKh(66)=0.E3,
(PID.TID 0000.0001) > PTRACERS_diffKr(66)=1.E-6,
(PID.TID 0000.0001) > PTRACERS_useKPP(66)=.TRUE.  ,
(PID.TID 0000.0001) ># tracer 67 - PHY46
(PID.TID 0000.0001) > PTRACERS_names(67)='Phy46',
(PID.TID 0000.0001) > PTRACERS_units(67)='mmol P/m^3'
(PID.TID 0000.0001) > PTRACERS_advScheme(67)=33,
(PID.TID 0000.0001) > PTRACERS_diffKh(67)=0.E3,
(PID.TID 0000.0001) > PTRACERS_diffKr(67)=1.E-6,
(PID.TID 0000.0001) > PTRACERS_useKPP(67)=.TRUE.  ,
(PID.TID 0000.0001) ># tracer 68 - PHY47
(PID.TID 0000.0001) > PTRACERS_names(68)='Phy47',
(PID.TID 0000.0001) > PTRACERS_units(68)='mmol P/m^3'
(PID.TID 0000.0001) > PTRACERS_advScheme(68)=33,
(PID.TID 0000.0001) > PTRACERS_diffKh(68)=0.E3,
(PID.TID 0000.0001) > PTRACERS_diffKr(68)=1.E-6,
(PID.TID 0000.0001) > PTRACERS_useKPP(68)=.TRUE.  ,
(PID.TID 0000.0001) ># tracer 69 - PHY48
(PID.TID 0000.0001) > PTRACERS_names(69)='Phy48',
(PID.TID 0000.0001) > PTRACERS_units(69)='mmol P/m^3'
(PID.TID 0000.0001) > PTRACERS_advScheme(69)=33,
(PID.TID 0000.0001) > PTRACERS_diffKh(69)=0.E3,
(PID.TID 0000.0001) > PTRACERS_diffKr(69)=1.E-6,
(PID.TID 0000.0001) > PTRACERS_useKPP(69)=.TRUE.  ,
(PID.TID 0000.0001) ># tracer 70 - PHY49
(PID.TID 0000.0001) > PTRACERS_names(70)='Phy49',
(PID.TID 0000.0001) > PTRACERS_units(70)='mmol P/m^3'
(PID.TID 0000.0001) > PTRACERS_advScheme(70)=33,
(PID.TID 0000.0001) > PTRACERS_diffKh(70)=0.E3,
(PID.TID 0000.0001) > PTRACERS_diffKr(70)=1.E-6,
(PID.TID 0000.0001) > PTRACERS_useKPP(70)=.TRUE.  ,
(PID.TID 0000.0001) ># tracer 71 - PHY50
(PID.TID 0000.0001) > PTRACERS_names(71)='Phy50',
(PID.TID 0000.0001) > PTRACERS_units(71)='mmol P/m^3'
(PID.TID 0000.0001) > PTRACERS_advScheme(71)=33,
(PID.TID 0000.0001) > PTRACERS_diffKh(71)=0.E3,
(PID.TID 0000.0001) > PTRACERS_diffKr(71)=1.E-6,
(PID.TID 0000.0001) > PTRACERS_useKPP(71)=.TRUE.  ,
(PID.TID 0000.0001) ># tracer 72 - PHY51
(PID.TID 0000.0001) > PTRACERS_names(72)='Phy51',
(PID.TID 0000.0001) > PTRACERS_units(72)='mmol P/m^3'
(PID.TID 0000.0001) > PTRACERS_advScheme(72)=33,
(PID.TID 0000.0001) > PTRACERS_diffKh(72)=0.E3,
(PID.TID 0000.0001) > PTRACERS_diffKr(72)=1.E-6,
(PID.TID 0000.0001) > PTRACERS_useKPP(72)=.TRUE.  ,
(PID.TID 0000.0001) ># tracer 73 - PHY52
(PID.TID 0000.0001) > PTRACERS_names(73)='Phy52',
(PID.TID 0000.0001) > PTRACERS_units(73)='mmol P/m^3'
(PID.TID 0000.0001) > PTRACERS_advScheme(73)=33,
(PID.TID 0000.0001) > PTRACERS_diffKh(73)=0.E3,
(PID.TID 0000.0001) > PTRACERS_diffKr(73)=1.E-6,
(PID.TID 0000.0001) > PTRACERS_useKPP(73)=.TRUE.  ,
(PID.TID 0000.0001) ># tracer 74 - PHY53
(PID.TID 0000.0001) > PTRACERS_names(74)='Phy53',
(PID.TID 0000.0001) > PTRACERS_units(74)='mmol P/m^3'
(PID.TID 0000.0001) > PTRACERS_advScheme(74)=33,
(PID.TID 0000.0001) > PTRACERS_diffKh(74)=0.E3,
(PID.TID 0000.0001) > PTRACERS_diffKr(74)=1.E-6,
(PID.TID 0000.0001) > PTRACERS_useKPP(74)=.TRUE.  ,
(PID.TID 0000.0001) ># tracer 75 - PHY54
(PID.TID 0000.0001) > PTRACERS_names(75)='Phy54',
(PID.TID 0000.0001) > PTRACERS_units(75)='mmol P/m^3'
(PID.TID 0000.0001) > PTRACERS_advScheme(75)=33,
(PID.TID 0000.0001) > PTRACERS_diffKh(75)=0.E3,
(PID.TID 0000.0001) > PTRACERS_diffKr(75)=1.E-6,
(PID.TID 0000.0001) > PTRACERS_useKPP(75)=.TRUE.  ,
(PID.TID 0000.0001) ># tracer 76 - PHY55
(PID.TID 0000.0001) > PTRACERS_names(76)='Phy55',
(PID.TID 0000.0001) > PTRACERS_units(76)='mmol P/m^3'
(PID.TID 0000.0001) > PTRACERS_advScheme(76)=33,
(PID.TID 0000.0001) > PTRACERS_diffKh(76)=0.E3,
(PID.TID 0000.0001) > PTRACERS_diffKr(76)=1.E-6,
(PID.TID 0000.0001) > PTRACERS_useKPP(76)=.TRUE.  ,
(PID.TID 0000.0001) ># tracer 77 - PHY56
(PID.TID 0000.0001) > PTRACERS_names(77)='Phy56',
(PID.TID 0000.0001) > PTRACERS_units(77)='mmol P/m^3'
(PID.TID 0000.0001) > PTRACERS_advScheme(77)=33,
(PID.TID 0000.0001) > PTRACERS_diffKh(77)=0.E3,
(PID.TID 0000.0001) > PTRACERS_diffKr(77)=1.E-6,
(PID.TID 0000.0001) > PTRACERS_useKPP(77)=.TRUE.  ,
(PID.TID 0000.0001) ># tracer 78 - PHY57
(PID.TID 0000.0001) > PTRACERS_names(78)='Phy57',
(PID.TID 0000.0001) > PTRACERS_units(78)='mmol P/m^3'
(PID.TID 0000.0001) > PTRACERS_advScheme(78)=33,
(PID.TID 0000.0001) > PTRACERS_diffKh(78)=0.E3,
(PID.TID 0000.0001) > PTRACERS_diffKr(78)=1.E-6,
(PID.TID 0000.0001) > PTRACERS_useKPP(78)=.TRUE.  ,
(PID.TID 0000.0001) ># tracer 79 - PHY58
(PID.TID 0000.0001) > PTRACERS_names(79)='Phy58',
(PID.TID 0000.0001) > PTRACERS_units(79)='mmol P/m^3'
(PID.TID 0000.0001) > PTRACERS_advScheme(79)=33,
(PID.TID 0000.0001) > PTRACERS_diffKh(79)=0.E3,
(PID.TID 0000.0001) > PTRACERS_diffKr(79)=1.E-6,
(PID.TID 0000.0001) > PTRACERS_useKPP(79)=.TRUE.  ,
(PID.TID 0000.0001) ># tracer 80 - PHY59
(PID.TID 0000.0001) > PTRACERS_names(80)='Phy59',
(PID.TID 0000.0001) > PTRACERS_units(80)='mmol P/m^3'
(PID.TID 0000.0001) > PTRACERS_advScheme(80)=33,
(PID.TID 0000.0001) > PTRACERS_diffKh(80)=0.E3,
(PID.TID 0000.0001) > PTRACERS_diffKr(80)=1.E-6,
(PID.TID 0000.0001) > PTRACERS_useKPP(80)=.TRUE.  ,
(PID.TID 0000.0001) ># tracer 81 - PHY60
(PID.TID 0000.0001) > PTRACERS_names(81)='Phy60',
(PID.TID 0000.0001) > PTRACERS_units(81)='mmol P/m^3'
(PID.TID 0000.0001) > PTRACERS_advScheme(81)=33,
(PID.TID 0000.0001) > PTRACERS_diffKh(81)=0.E3,
(PID.TID 0000.0001) > PTRACERS_diffKr(81)=1.E-6,
(PID.TID 0000.0001) > PTRACERS_useKPP(81)=.TRUE.  ,
(PID.TID 0000.0001) ># tracer 82 - PHY61
(PID.TID 0000.0001) > PTRACERS_names(82)='Phy61',
(PID.TID 0000.0001) > PTRACERS_units(82)='mmol P/m^3'
(PID.TID 0000.0001) > PTRACERS_advScheme(82)=33,
(PID.TID 0000.0001) > PTRACERS_diffKh(82)=0.E3,
(PID.TID 0000.0001) > PTRACERS_diffKr(82)=1.E-6,
(PID.TID 0000.0001) > PTRACERS_useKPP(82)=.TRUE.  ,
(PID.TID 0000.0001) ># tracer 83 - PHY62
(PID.TID 0000.0001) > PTRACERS_names(83)='Phy62',
(PID.TID 0000.0001) > PTRACERS_units(83)='mmol P/m^3'
(PID.TID 0000.0001) > PTRACERS_advScheme(83)=33,
(PID.TID 0000.0001) > PTRACERS_diffKh(83)=0.E3,
(PID.TID 0000.0001) > PTRACERS_diffKr(83)=1.E-6,
(PID.TID 0000.0001) > PTRACERS_useKPP(83)=.TRUE.  ,
(PID.TID 0000.0001) ># tracer 84 - PHY63
(PID.TID 0000.0001) > PTRACERS_names(84)='Phy63',
(PID.TID 0000.0001) > PTRACERS_units(84)='mmol P/m^3'
(PID.TID 0000.0001) > PTRACERS_advScheme(84)=33,
(PID.TID 0000.0001) > PTRACERS_diffKh(84)=0.E3,
(PID.TID 0000.0001) > PTRACERS_diffKr(84)=1.E-6,
(PID.TID 0000.0001) > PTRACERS_useKPP(84)=.TRUE.  ,
(PID.TID 0000.0001) ># tracer 85 - PHY64
(PID.TID 0000.0001) > PTRACERS_names(85)='Phy64',
(PID.TID 0000.0001) > PTRACERS_units(85)='mmol P/m^3'
(PID.TID 0000.0001) > PTRACERS_advScheme(85)=33,
(PID.TID 0000.0001) > PTRACERS_diffKh(85)=0.E3,
(PID.TID 0000.0001) > PTRACERS_diffKr(85)=1.E-6,
(PID.TID 0000.0001) > PTRACERS_useKPP(85)=.TRUE.  ,
(PID.TID 0000.0001) ># tracer 86 - PHY65
(PID.TID 0000.0001) > PTRACERS_names(86)='Phy65',
(PID.TID 0000.0001) > PTRACERS_units(86)='mmol P/m^3'
(PID.TID 0000.0001) > PTRACERS_advScheme(86)=33,
(PID.TID 0000.0001) > PTRACERS_diffKh(86)=0.E3,
(PID.TID 0000.0001) > PTRACERS_diffKr(86)=1.E-6,
(PID.TID 0000.0001) > PTRACERS_useKPP(86)=.TRUE.  ,
(PID.TID 0000.0001) ># tracer 87 - PHY66
(PID.TID 0000.0001) > PTRACERS_names(87)='Phy66',
(PID.TID 0000.0001) > PTRACERS_units(87)='mmol P/m^3'
(PID.TID 0000.0001) > PTRACERS_advScheme(87)=33,
(PID.TID 0000.0001) > PTRACERS_diffKh(87)=0.E3,
(PID.TID 0000.0001) > PTRACERS_diffKr(87)=1.E-6,
[...]
(PID.TID 0000.0001) %MON trcstat_ptracer93_del2       =   3.3801942646775E-06
(PID.TID 0000.0001) %MON trcstat_ptracer94_max        =   5.2629774637197E-05
(PID.TID 0000.0001) %MON trcstat_ptracer94_min        =   1.2412675900186E-28
(PID.TID 0000.0001) %MON trcstat_ptracer94_mean       =   1.0685512327470E-07
(PID.TID 0000.0001) %MON trcstat_ptracer94_sd         =   1.6677111909447E-06
(PID.TID 0000.0001) %MON trcstat_ptracer94_del2       =   4.6295109025523E-08
(PID.TID 0000.0001) %MON trcstat_ptracer95_max        =   5.6037410116614E-05
(PID.TID 0000.0001) %MON trcstat_ptracer95_min        =  -4.2349792754670E-18
(PID.TID 0000.0001) %MON trcstat_ptracer95_mean       =   1.2513272492312E-07
(PID.TID 0000.0001) %MON trcstat_ptracer95_sd         =   1.8060063358593E-06
(PID.TID 0000.0001) %MON trcstat_ptracer95_del2       =   4.5352617091259E-08
(PID.TID 0000.0001) %MON trcstat_ptracer96_max        =   5.2629768352153E-05
(PID.TID 0000.0001) %MON trcstat_ptracer96_min        =  -2.6858968266048E-17
(PID.TID 0000.0001) %MON trcstat_ptracer96_mean       =   1.0685394515517E-07
(PID.TID 0000.0001) %MON trcstat_ptracer96_sd         =   1.6677108518340E-06
(PID.TID 0000.0001) %MON trcstat_ptracer96_del2       =   4.6295111114105E-08
(PID.TID 0000.0001) %MON trcstat_ptracer97_max        =   8.0753649048310E-04
(PID.TID 0000.0001) %MON trcstat_ptracer97_min        =   1.0000000000689E-50
(PID.TID 0000.0001) %MON trcstat_ptracer97_mean       =   1.5711259201851E-06
(PID.TID 0000.0001) %MON trcstat_ptracer97_sd         =   1.5779895942107E-05
(PID.TID 0000.0001) %MON trcstat_ptracer97_del2       =   1.3214091067481E-07
(PID.TID 0000.0001) %MON trcstat_ptracer98_max        =   7.3478133099841E-05
(PID.TID 0000.0001) %MON trcstat_ptracer98_min        =  -1.0142682988027E-23
(PID.TID 0000.0001) %MON trcstat_ptracer98_mean       =   2.0598168938217E-07
(PID.TID 0000.0001) %MON trcstat_ptracer98_sd         =   2.8736210562559E-06
(PID.TID 0000.0001) %MON trcstat_ptracer98_del2       =   3.9386606846393E-08
(PID.TID 0000.0001) %MON trcstat_ptracer99_max        =   5.4170300117050E-05
(PID.TID 0000.0001) %MON trcstat_ptracer99_min        =  -9.8814200058399E-22
(PID.TID 0000.0001) %MON trcstat_ptracer99_mean       =   1.1618249499193E-07
(PID.TID 0000.0001) %MON trcstat_ptracer99_sd         =   1.7576927371543E-06
(PID.TID 0000.0001) %MON trcstat_ptracer99_del2       =   4.5499097973682E-08
(PID.TID 0000.0001) // =======================================================
(PID.TID 0000.0001) // End MONITOR ptracers field statistics
(PID.TID 0000.0001) // =======================================================
 Compute Stats, Diag. #   1605  SIqsw     vol(   0 ): 4.767E+11  Parms: SM      U1      
 Compute Stats, Diag. #     86  oceQsw    vol(   0 ): 4.767E+11  Parms: SM      U1      
 Compute Stats, Diag. #   1497  PAR       vol(   0 ): 2.820E+13  Parms: SM P    MR      
 Compute Stats, Diag. #    176  EXFswnet  vol(   0 ): 4.767E+11  Parms: SM      U1      
 Compute Stats, Diag. #    178  EXFswdn   vol(   0 ): 4.767E+11  Parms: SM      U1      
 Compute Stats, Diag. #     26  THETA     vol(   0 ): 2.820E+13  Parms: SMR     MR      
 Compute Stats, Diag. #     29  SALTanom  vol(   0 ): 2.820E+13  Parms: SMR     MR      
 Compute Stats, Diag. #   1498  PP        vol(   0 ): 2.820E+13  Parms: SM P    MR      
 Compute Stats, Diag. #   1223  TRAC79    vol(   0 ): 2.820E+13  Parms: SMR     MR      
 Compute Stats, Diag. #     23  ETAN      vol(   0 ): 4.767E+11  Parms: SM      M1      
 Compute Stats, Diag. #    235  TRAC03    vol(   0 ): 2.820E+13  Parms: SMR     MR      
 Compute Stats, Diag. #   1579  Diver1    vol(   0 ): 2.820E+13  Parms: SM P    MR      
 Compute Stats, Diag. #   1580  Diver2    vol(   0 ): 2.820E+13  Parms: SM P    MR      
 Compute Stats, Diag. #   1581  Diver3    vol(   0 ): 2.820E+13  Parms: SM P    MR      
 Compute Stats, Diag. #   1582  Diver4    vol(   0 ): 2.820E+13  Parms: SM P    MR      
 Compute Stats, Diag. #   1583  Shannon   vol(   0 ): 2.820E+13  Parms: SM P    MR      
 Compute Stats, Diag. #   1584  Simpson   vol(   0 ): 2.820E+13  Parms: SM P    MR      
(PID.TID 0000.0001) DIAGSTATS_CLOSE_IO: close file: stat_SIqsw.0000188388.txt , unit=     9
(PID.TID 0000.0001) DIAGSTATS_CLOSE_IO: close file: stat_oceQsw.0000188388.txt , unit=    10
(PID.TID 0000.0001) DIAGSTATS_CLOSE_IO: close file: stat_PAR.0000188388.txt , unit=    16
(PID.TID 0000.0001) DIAGSTATS_CLOSE_IO: close file: stat_EXFswnet.0000188388.txt , unit=    17
(PID.TID 0000.0001) DIAGSTATS_CLOSE_IO: close file: stat_EXFswdn.0000188388.txt , unit=    18
(PID.TID 0000.0001) DIAGSTATS_CLOSE_IO: close file: stat_THETA.0000188388.txt , unit=    19
(PID.TID 0000.0001) DIAGSTATS_CLOSE_IO: close file: stat_SALTanom.0000188388.txt , unit=    20
(PID.TID 0000.0001) DIAGSTATS_CLOSE_IO: close file: stat_PP.0000188388.txt , unit=    21
(PID.TID 0000.0001) DIAGSTATS_CLOSE_IO: close file: stat_Phy58.0000188388.txt , unit=    22
(PID.TID 0000.0001) DIAGSTATS_CLOSE_IO: close file: stat_ETAN.0000188388.txt , unit=    23
(PID.TID 0000.0001) DIAGSTATS_CLOSE_IO: close file: stat_FeT.0000188388.txt , unit=    24
(PID.TID 0000.0001) DIAGSTATS_CLOSE_IO: close file: stat_Diver1.0000188388.txt , unit=    25
(PID.TID 0000.0001) DIAGSTATS_CLOSE_IO: close file: stat_Diver2.0000188388.txt , unit=    26
(PID.TID 0000.0001) DIAGSTATS_CLOSE_IO: close file: stat_Diver3.0000188388.txt , unit=    27
(PID.TID 0000.0001) DIAGSTATS_CLOSE_IO: close file: stat_Diver4.0000188388.txt , unit=    28
(PID.TID 0000.0001) DIAGSTATS_CLOSE_IO: close file: stat_Shannon.0000188388.txt , unit=    29
(PID.TID 0000.0001) DIAGSTATS_CLOSE_IO: close file: stat_Simpson.0000188388.txt , unit=    30
(PID.TID 0000.0001) %CHECKPOINT    188392 ckptA
(PID.TID 0000.0001)   Seconds in section "ALL                    [THE_MODEL_MAIN]":
(PID.TID 0000.0001)           User time:   91.060000000000002
(PID.TID 0000.0001)         System time:   1.2700000000000000
(PID.TID 0000.0001)     Wall clock time:   92.858173131942749
(PID.TID 0000.0001)          No. starts:           1
(PID.TID 0000.0001)           No. stops:           1
(PID.TID 0000.0001)   Seconds in section "INITIALISE_FIXED       [THE_MODEL_MAIN]":
(PID.TID 0000.0001)           User time:  0.39000000000000001
(PID.TID 0000.0001)         System time:   2.9999999999999999E-002
(PID.TID 0000.0001)     Wall clock time:  0.42548990249633789
(PID.TID 0000.0001)          No. starts:           1
(PID.TID 0000.0001)           No. stops:           1
(PID.TID 0000.0001)   Seconds in section "THE_MAIN_LOOP          [THE_MODEL_MAIN]":
(PID.TID 0000.0001)           User time:   90.670000000000002
(PID.TID 0000.0001)         System time:   1.2400000000000000
(PID.TID 0000.0001)     Wall clock time:   92.432641983032227
(PID.TID 0000.0001)          No. starts:           1
(PID.TID 0000.0001)           No. stops:           1
(PID.TID 0000.0001)   Seconds in section "INITIALISE_VARIA    [THE_MAIN_LOOP]":
(PID.TID 0000.0001)           User time:   2.3500000000000001
(PID.TID 0000.0001)         System time:   1.0900000000000001
(PID.TID 0000.0001)     Wall clock time:   3.4761390686035156
(PID.TID 0000.0001)          No. starts:           1
(PID.TID 0000.0001)           No. stops:           1
(PID.TID 0000.0001)   Seconds in section "MAIN LOOP           [THE_MAIN_LOOP]":
(PID.TID 0000.0001)           User time:   88.320000000000007
(PID.TID 0000.0001)         System time:  0.14999999999999991
(PID.TID 0000.0001)     Wall clock time:   88.956470012664795
(PID.TID 0000.0001)          No. starts:           1
(PID.TID 0000.0001)           No. stops:           1
(PID.TID 0000.0001)   Seconds in section "MAIN_DO_LOOP        [THE_MAIN_LOOP]":
(PID.TID 0000.0001)           User time:   88.320000000000007
(PID.TID 0000.0001)         System time:  0.14999999999999991
(PID.TID 0000.0001)     Wall clock time:   88.956449031829834
(PID.TID 0000.0001)          No. starts:           1
(PID.TID 0000.0001)           No. stops:           1
(PID.TID 0000.0001)   Seconds in section "FORWARD_STEP        [MAIN_DO_LOOP]":
(PID.TID 0000.0001)           User time:   88.320000000000007
(PID.TID 0000.0001)         System time:  0.14999999999999991
(PID.TID 0000.0001)     Wall clock time:   88.956398248672485
(PID.TID 0000.0001)          No. starts:           4
(PID.TID 0000.0001)           No. stops:           4
(PID.TID 0000.0001)   Seconds in section "DO_STATEVARS_DIAGS  [FORWARD_STEP]":
(PID.TID 0000.0001)           User time:  0.61000000000001364
(PID.TID 0000.0001)         System time:   0.0000000000000000
(PID.TID 0000.0001)     Wall clock time:  0.61065578460693359
(PID.TID 0000.0001)          No. starts:          12
(PID.TID 0000.0001)           No. stops:          12
(PID.TID 0000.0001)   Seconds in section "LOAD_FIELDS_DRIVER  [FORWARD_STEP]":
(PID.TID 0000.0001)           User time:  0.19000000000001194
(PID.TID 0000.0001)         System time:   0.0000000000000000
(PID.TID 0000.0001)     Wall clock time:  0.18971490859985352
(PID.TID 0000.0001)          No. starts:           4
(PID.TID 0000.0001)           No. stops:           4
(PID.TID 0000.0001)   Seconds in section "EXF_GETFORCING     [LOAD_FLDS_DRIVER]":
(PID.TID 0000.0001)           User time:  0.17000000000001592
(PID.TID 0000.0001)         System time:   0.0000000000000000
(PID.TID 0000.0001)     Wall clock time:  0.17222094535827637
(PID.TID 0000.0001)          No. starts:           4
(PID.TID 0000.0001)           No. stops:           4
(PID.TID 0000.0001)   Seconds in section "EXTERNAL_FLDS_LOAD [LOAD_FLDS_DRIVER]":
(PID.TID 0000.0001)           User time:   0.0000000000000000
(PID.TID 0000.0001)         System time:   0.0000000000000000
(PID.TID 0000.0001)     Wall clock time:   4.5776367187500000E-005
(PID.TID 0000.0001)          No. starts:           4
(PID.TID 0000.0001)           No. stops:           4
(PID.TID 0000.0001)   Seconds in section "DO_ATMOSPHERIC_PHYS [FORWARD_STEP]":
(PID.TID 0000.0001)           User time:   0.0000000000000000
(PID.TID 0000.0001)         System time:   0.0000000000000000
(PID.TID 0000.0001)     Wall clock time:   4.4107437133789063E-005
(PID.TID 0000.0001)          No. starts:           4
(PID.TID 0000.0001)           No. stops:           4
(PID.TID 0000.0001)   Seconds in section "DO_OCEANIC_PHYS     [FORWARD_STEP]":
(PID.TID 0000.0001)           User time:   2.5099999999999767
(PID.TID 0000.0001)         System time:   1.0000000000000009E-002
(PID.TID 0000.0001)     Wall clock time:   2.5226819515228271
(PID.TID 0000.0001)          No. starts:           4
(PID.TID 0000.0001)           No. stops:           4
(PID.TID 0000.0001)   Seconds in section "SEAICE_MODEL    [DO_OCEANIC_PHYS]":
(PID.TID 0000.0001)           User time:  0.71000000000000796
(PID.TID 0000.0001)         System time:   0.0000000000000000
(PID.TID 0000.0001)     Wall clock time:  0.71867203712463379
(PID.TID 0000.0001)          No. starts:           4
(PID.TID 0000.0001)           No. stops:           4
(PID.TID 0000.0001)   Seconds in section "SEAICE_DYNSOLVER   [SEAICE_MODEL]":
(PID.TID 0000.0001)           User time:  0.53999999999999204
(PID.TID 0000.0001)         System time:   0.0000000000000000
(PID.TID 0000.0001)     Wall clock time:  0.55051398277282715
(PID.TID 0000.0001)          No. starts:           4
(PID.TID 0000.0001)           No. stops:           4
(PID.TID 0000.0001)   Seconds in section "KPP_CALC [DO_OCEANIC_PHYS]":
(PID.TID 0000.0001)           User time:   1.5299999999999727
(PID.TID 0000.0001)         System time:   0.0000000000000000
(PID.TID 0000.0001)     Wall clock time:   1.5221998691558838
(PID.TID 0000.0001)          No. starts:          16
(PID.TID 0000.0001)           No. stops:          16
(PID.TID 0000.0001)   Seconds in section "GCHEM_CALC_TENDENCY [FORWARD_STEP]":
(PID.TID 0000.0001)           User time:   0.0000000000000000
(PID.TID 0000.0001)         System time:   0.0000000000000000
(PID.TID 0000.0001)     Wall clock time:   4.1961669921875000E-005
(PID.TID 0000.0001)          No. starts:           4
(PID.TID 0000.0001)           No. stops:           4
(PID.TID 0000.0001)   Seconds in section "DYNAMICS            [FORWARD_STEP]":
(PID.TID 0000.0001)           User time:   1.5600000000000023
(PID.TID 0000.0001)         System time:   0.0000000000000000
(PID.TID 0000.0001)     Wall clock time:   1.5725381374359131
(PID.TID 0000.0001)          No. starts:           4
(PID.TID 0000.0001)           No. stops:           4
(PID.TID 0000.0001)   Seconds in section "UPDATE_SURF_DR      [FORWARD_STEP]":
(PID.TID 0000.0001)           User time:   9.9999999999909051E-003
(PID.TID 0000.0001)         System time:   0.0000000000000000
(PID.TID 0000.0001)     Wall clock time:   1.4024019241333008E-002
(PID.TID 0000.0001)          No. starts:           4
(PID.TID 0000.0001)           No. stops:           4
(PID.TID 0000.0001)   Seconds in section "SOLVE_FOR_PRESSURE  [FORWARD_STEP]":
(PID.TID 0000.0001)           User time:  0.11000000000001364
(PID.TID 0000.0001)         System time:   0.0000000000000000
(PID.TID 0000.0001)     Wall clock time:  0.10386109352111816
(PID.TID 0000.0001)          No. starts:           4
(PID.TID 0000.0001)           No. stops:           4
(PID.TID 0000.0001)   Seconds in section "MOM_CORRECTION_STEP [FORWARD_STEP]":
(PID.TID 0000.0001)           User time:   3.0000000000001137E-002
(PID.TID 0000.0001)         System time:   0.0000000000000000
(PID.TID 0000.0001)     Wall clock time:   3.6372900009155273E-002
(PID.TID 0000.0001)          No. starts:           4
(PID.TID 0000.0001)           No. stops:           4
(PID.TID 0000.0001)   Seconds in section "INTEGR_CONTINUITY   [FORWARD_STEP]":
(PID.TID 0000.0001)           User time:   7.9999999999998295E-002
(PID.TID 0000.0001)         System time:   0.0000000000000000
(PID.TID 0000.0001)     Wall clock time:   7.9500913619995117E-002
(PID.TID 0000.0001)          No. starts:           4
(PID.TID 0000.0001)           No. stops:           4
(PID.TID 0000.0001)   Seconds in section "BLOCKING_EXCHANGES  [FORWARD_STEP]":
(PID.TID 0000.0001)           User time:  0.57999999999998408
(PID.TID 0000.0001)         System time:   0.0000000000000000
(PID.TID 0000.0001)     Wall clock time:  0.58413386344909668
(PID.TID 0000.0001)          No. starts:           8
(PID.TID 0000.0001)           No. stops:           8
(PID.TID 0000.0001)   Seconds in section "THERMODYNAMICS      [FORWARD_STEP]":
(PID.TID 0000.0001)           User time:   64.719999999999999
(PID.TID 0000.0001)         System time:   0.0000000000000000
(PID.TID 0000.0001)     Wall clock time:   65.071156024932861
(PID.TID 0000.0001)          No. starts:           4
(PID.TID 0000.0001)           No. stops:           4
(PID.TID 0000.0001)   Seconds in section "TRC_CORRECTION_STEP [FORWARD_STEP]":
(PID.TID 0000.0001)           User time:  0.76000000000000512
(PID.TID 0000.0001)         System time:   0.0000000000000000
(PID.TID 0000.0001)     Wall clock time:  0.75437688827514648
(PID.TID 0000.0001)          No. starts:           4
(PID.TID 0000.0001)           No. stops:           4
(PID.TID 0000.0001)   Seconds in section "GCHEM_FORCING_SEP  [FORWARD_STEP]":
(PID.TID 0000.0001)           User time:   14.359999999999999
(PID.TID 0000.0001)         System time:   2.9999999999999805E-002
(PID.TID 0000.0001)     Wall clock time:   14.488900899887085
(PID.TID 0000.0001)          No. starts:           4
(PID.TID 0000.0001)           No. stops:           4
(PID.TID 0000.0001)   Seconds in section "MONITOR             [FORWARD_STEP]":
(PID.TID 0000.0001)           User time:  0.21999999999999886
(PID.TID 0000.0001)         System time:   0.0000000000000000
(PID.TID 0000.0001)     Wall clock time:  0.21982336044311523
(PID.TID 0000.0001)          No. starts:           4
(PID.TID 0000.0001)           No. stops:           4
(PID.TID 0000.0001)   Seconds in section "DO_THE_MODEL_IO     [FORWARD_STEP]":
(PID.TID 0000.0001)           User time:   1.6900000000000119
(PID.TID 0000.0001)         System time:   0.0000000000000000
(PID.TID 0000.0001)     Wall clock time:   1.7007210254669189
(PID.TID 0000.0001)          No. starts:           4
(PID.TID 0000.0001)           No. stops:           4
(PID.TID 0000.0001)   Seconds in section "DO_WRITE_PICKUP     [FORWARD_STEP]":
(PID.TID 0000.0001)           User time:  0.89000000000000057
(PID.TID 0000.0001)         System time:  0.11000000000000010
(PID.TID 0000.0001)     Wall clock time:   1.0069081783294678
(PID.TID 0000.0001)          No. starts:           4
(PID.TID 0000.0001)           No. stops:           4
(PID.TID 0000.0001) // ======================================================
(PID.TID 0000.0001) // Tile <-> Tile communication statistics
(PID.TID 0000.0001) // ======================================================
(PID.TID 0000.0001) // o Tile number: 000001
(PID.TID 0000.0001) //         No. X exchanges =              0
(PID.TID 0000.0001) //            Max. X spins =              0
(PID.TID 0000.0001) //            Min. X spins =     1000000000
(PID.TID 0000.0001) //          Total. X spins =              0
(PID.TID 0000.0001) //            Avg. X spins =       0.00E+00
(PID.TID 0000.0001) //         No. Y exchanges =              0
(PID.TID 0000.0001) //            Max. Y spins =              0
(PID.TID 0000.0001) //            Min. Y spins =     1000000000
(PID.TID 0000.0001) //          Total. Y spins =              0
(PID.TID 0000.0001) //            Avg. Y spins =       0.00E+00
(PID.TID 0000.0001) // o Tile number: 000002
(PID.TID 0000.0001) //         No. X exchanges =              0
(PID.TID 0000.0001) //            Max. X spins =              0
(PID.TID 0000.0001) //            Min. X spins =     1000000000
(PID.TID 0000.0001) //          Total. X spins =              0
(PID.TID 0000.0001) //            Avg. X spins =       0.00E+00
(PID.TID 0000.0001) //         No. Y exchanges =              0
(PID.TID 0000.0001) //            Max. Y spins =              0
(PID.TID 0000.0001) //            Min. Y spins =     1000000000
(PID.TID 0000.0001) //          Total. Y spins =              0
(PID.TID 0000.0001) //            Avg. Y spins =       0.00E+00
(PID.TID 0000.0001) // o Tile number: 000003
(PID.TID 0000.0001) //         No. X exchanges =              0
(PID.TID 0000.0001) //            Max. X spins =              0
(PID.TID 0000.0001) //            Min. X spins =     1000000000
(PID.TID 0000.0001) //          Total. X spins =              0
(PID.TID 0000.0001) //            Avg. X spins =       0.00E+00
(PID.TID 0000.0001) //         No. Y exchanges =              0
(PID.TID 0000.0001) //            Max. Y spins =              0
(PID.TID 0000.0001) //            Min. Y spins =     1000000000
(PID.TID 0000.0001) //          Total. Y spins =              0
(PID.TID 0000.0001) //            Avg. Y spins =       0.00E+00
(PID.TID 0000.0001) // o Tile number: 000004
(PID.TID 0000.0001) //         No. X exchanges =              0
(PID.TID 0000.0001) //            Max. X spins =              0
(PID.TID 0000.0001) //            Min. X spins =     1000000000
(PID.TID 0000.0001) //          Total. X spins =              0
(PID.TID 0000.0001) //            Avg. X spins =       0.00E+00
(PID.TID 0000.0001) //         No. Y exchanges =              0
(PID.TID 0000.0001) //            Max. Y spins =              0
(PID.TID 0000.0001) //            Min. Y spins =     1000000000
(PID.TID 0000.0001) //          Total. Y spins =              0
(PID.TID 0000.0001) //            Avg. Y spins =       0.00E+00
(PID.TID 0000.0001) // o Thread number: 000001
(PID.TID 0000.0001) //            No. barriers =          31996
(PID.TID 0000.0001) //      Max. barrier spins =              1
(PID.TID 0000.0001) //      Min. barrier spins =              1
(PID.TID 0000.0001) //     Total barrier spins =          31996
(PID.TID 0000.0001) //      Avg. barrier spins =       1.00E+00
PROGRAM MAIN: Execution ended Normally
